*SPEF "1481-1998"
*DESIGN "ac97_top"
*DATE "Tue Apr 22 09:47:04 2025"
*VENDOR "Synopsys, Inc."
*PROGRAM "icc_shell"
*VERSION "W-2024.09-SP2"
*DESIGN_FLOW "PIN_CAP NONE"
*DIVIDER /
*DELIMITER :
*BUS_DELIMITER [ ]
*T_UNIT 1 NS
*C_UNIT 1 FF
*R_UNIT 1 OHM
*L_UNIT 1 HENRY

*NAME_MAP
*1 wb_data_i[3]
*2 wb_data_i[2]
*3 wb_data_i[1]
*4 wb_data_i[0]
*5 VDD
*6 wb_data_i[11]
*7 wb_data_i[10]
*8 wb_data_i[9]
*9 wb_data_i[8]
*10 wb_data_i[7]
*11 wb_data_i[6]
*12 wb_data_i[5]
*13 wb_data_i[4]
*14 wb_data_i[19]
*15 wb_data_i[18]
*16 wb_data_i[17]
*17 wb_data_i[16]
*18 wb_data_i[15]
*19 wb_data_i[14]
*20 wb_data_i[13]
*21 wb_data_i[12]
*22 wb_data_i[27]
*23 wb_data_i[26]
*24 wb_data_i[25]
*25 wb_data_i[24]
*26 wb_data_i[23]
*27 wb_data_i[22]
*28 wb_data_i[21]
*29 wb_data_i[20]
*30 wb_data_o[3]
*31 wb_data_o[2]
*32 wb_data_o[1]
*33 wb_data_o[0]
*34 wb_data_i[31]
*35 wb_data_i[30]
*36 wb_data_i[29]
*37 wb_data_i[28]
*38 wb_data_o[11]
*39 wb_data_o[10]
*40 wb_data_o[9]
*41 wb_data_o[8]
*42 wb_data_o[7]
*43 wb_data_o[6]
*44 wb_data_o[5]
*45 wb_data_o[4]
*46 wb_data_o[19]
*47 wb_data_o[18]
*48 wb_data_o[17]
*49 wb_data_o[16]
*50 wb_data_o[15]
*51 wb_data_o[14]
*52 wb_data_o[13]
*53 wb_data_o[12]
*54 wb_data_o[27]
*55 wb_data_o[26]
*56 wb_data_o[25]
*57 wb_data_o[24]
*58 wb_data_o[23]
*59 wb_data_o[22]
*60 wb_data_o[21]
*61 wb_data_o[20]
*62 wb_addr_i[3]
*63 wb_addr_i[2]
*64 wb_addr_i[1]
*65 wb_addr_i[0]
*66 wb_data_o[31]
*67 wb_data_o[30]
*68 wb_data_o[29]
*69 wb_data_o[28]
*70 wb_addr_i[11]
*71 wb_addr_i[10]
*72 wb_addr_i[9]
*73 wb_addr_i[8]
*74 wb_addr_i[7]
*75 wb_addr_i[6]
*76 wb_addr_i[5]
*77 wb_addr_i[4]
*78 wb_addr_i[19]
*79 wb_addr_i[18]
*80 wb_addr_i[17]
*81 wb_addr_i[16]
*82 wb_addr_i[15]
*83 wb_addr_i[14]
*84 wb_addr_i[13]
*85 wb_addr_i[12]
*86 wb_addr_i[27]
*87 wb_addr_i[26]
*88 wb_addr_i[25]
*89 wb_addr_i[24]
*90 wb_addr_i[23]
*91 wb_addr_i[22]
*92 wb_addr_i[21]
*93 wb_addr_i[20]
*94 wb_sel_i[3]
*95 wb_sel_i[2]
*96 wb_sel_i[1]
*97 wb_sel_i[0]
*98 wb_addr_i[31]
*99 wb_addr_i[30]
*100 wb_addr_i[29]
*101 wb_addr_i[28]
*102 dma_req_o[7]
*103 dma_req_o[6]
*104 dma_req_o[5]
*105 dma_req_o[4]
*106 dma_req_o[3]
*107 dma_req_o[2]
*108 dma_req_o[1]
*109 dma_req_o[0]
*110 dma_ack_i[6]
*111 dma_ack_i[5]
*112 dma_ack_i[4]
*113 dma_ack_i[3]
*114 dma_ack_i[2]
*115 dma_ack_i[1]
*116 dma_ack_i[0]
*117 dma_req_o[8]
*118 bit_clk_pad_i
*119 wb_stb_i
*120 wb_cyc_i
*121 wb_we_i
*122 rst_i
*123 clk_i
*124 dma_ack_i[8]
*125 dma_ack_i[7]
*126 ac97_reset_pad_o_
*127 sdata_pad_o
*128 sync_pad_o
*129 suspended_o
*130 int_o
*131 wb_err_o
*132 wb_ack_o
*133 sdata_pad_i
*134 n24
*135 U30
*136 U31
*137 U29
*138 n21
*139 U28
*140 U27
*141 U26
*142 n18
*143 U25
*144 U23
*145 U24
*146 n15
*147 U20
*148 U21
*149 U22
*150 n12
*151 U19
*152 U17
*153 U18
*154 n9
*155 U15
*156 U14
*157 U16
*158 n6
*159 U13
*160 U12
*161 U11
*162 n3
*163 U10
*164 U8
*165 U9
*166 n95
*167 U5
*168 U4
*169 U3
*170 in_valid_s1\[2\]
*171 in_valid_s_reg\[2\]
*172 in_valid_s1_reg\[2\]
*173 in_valid_s1\[1\]
*174 in_valid_s1_reg\[1\]
*175 in_valid_s_reg\[1\]
*176 in_valid_s1\[0\]
*177 in_valid_s1_reg\[0\]
*178 in_valid_s_reg\[0\]
*179 valid_s1
*180 valid_s_reg
*181 valid_s1_reg
*182 n90
*183 U95
*184 U97
*185 U96
*186 n87
*187 U92
*188 U94
*189 U93
*190 n84
*191 U89
*192 U91
*193 U90
*194 n81
*195 U86
*196 U88
*197 U87
*198 n78
*199 U83
*200 U85
*201 U84
*202 n75
*203 U80
*204 U82
*205 U81
*206 n72
*207 U77
*208 U79
*209 U78
*210 n69
*211 U74
*212 U75
*213 U76
*214 n66
*215 U72
*216 U71
*217 U73
*218 n63
*219 U68
*220 U70
*221 U69
*222 n60
*223 U65
*224 U67
*225 U66
*226 n57
*227 U62
*228 U64
*229 U63
*230 n54
*231 U59
*232 U61
*233 U60
*234 n51
*235 U56
*236 U58
*237 U57
*238 n48
*239 U53
*240 U55
*241 U54
*242 n45
*243 U52
*244 U50
*245 U51
*246 n42
*247 U49
*248 U47
*249 U48
*250 n39
*251 U46
*252 U44
*253 U45
*254 n36
*255 U43
*256 U41
*257 U42
*258 n33
*259 U40
*260 U38
*261 U39
*262 n30
*263 U37
*264 U35
*265 U36
*266 n27
*267 U34
*268 U33
*269 U32
*270 out_le\[0\]
*271 u1/U21
*272 u2/out_le_reg\[0\]
*273 u1/U22
*274 u1/U23
*275 u1/U25
*276 u1/U39
*277 u1/U141
*278 u1/U29
*279 out_le\[1\]
*280 u1/U106
*281 u1/U101
*282 u2/out_le_reg\[1\]
*283 u1/U81
*284 u1/U140
*285 u1/U86
*286 u1/U61
*287 u1/U91
*288 u1/U51
*289 u1/U71
*290 u1/U66
*291 out_le\[2\]
*292 u2/out_le_reg\[2\]
*293 u1/U132
*294 u1/U116
*295 u1/U100
*296 u1/U126
*297 u1/U80
*298 u1/U142
*299 u1/U90
*300 u1/U60
*301 u1/U50
*302 u1/U70
*303 out_le\[3\]
*304 u1/U49
*305 u1/U99
*306 u1/U104
*307 u1/U84
*308 u1/U59
*309 u1/U139
*310 u1/U69
*311 u1/U64
*312 u1/U89
*313 u1/U79
*314 u2/out_le_reg\[3\]
*315 out_le\[4\]
*316 u1/U134
*317 u1/U114
*318 u1/U98
*319 u1/U124
*320 u1/U48
*321 u1/U88
*322 u1/U68
*323 u1/U138
*324 u1/U78
*325 u2/out_le_reg\[4\]
*326 u1/U58
*327 out_le\[5\]
*328 u1/U118
*329 u1/U42
*330 u1/U52
*331 u1/U92
*332 u1/U137
*333 u1/U108
*334 u1/U72
*335 u1/U82
*336 u1/U62
*337 u1/U133
*338 u2/out_le_reg\[5\]
*339 in_valid\[0\]
*340 u2/in_valid_reg\[0\]
*341 in_valid\[1\]
*342 u2/in_valid_reg\[1\]
*343 in_valid\[2\]
*344 u2/in_valid_reg\[2\]
*345 ld
*346 u2/ld_reg
*347 u0/U58
*348 u0/U56
*349 u0/U57
*350 u0/U55
*351 valid
*352 u2/valid_reg
*353 out_slt4\[0\]
*354 u4/U90
*355 u0/slt4_r_reg\[0\]
*356 u4/dout_reg\[0\]
*357 out_slt4\[1\]
*358 u4/U91
*359 u0/slt4_r_reg\[1\]
*360 u4/dout_reg\[1\]
*361 out_slt4\[2\]
*362 u4/U80
*363 u4/dout_reg\[2\]
*364 u0/slt4_r_reg\[2\]
*365 out_slt4\[3\]
*366 u4/U81
*367 u4/dout_reg\[3\]
*368 u0/slt4_r_reg\[3\]
*369 out_slt4\[4\]
*370 u4/U61
*371 u4/dout_reg\[4\]
*372 u0/slt4_r_reg\[4\]
*373 out_slt4\[5\]
*374 u4/U63
*375 u0/slt4_r_reg\[5\]
*376 u4/dout_reg\[5\]
*377 out_slt4\[6\]
*378 u4/U72
*379 u0/slt4_r_reg\[6\]
*380 u4/dout_reg\[6\]
*381 out_slt4\[7\]
*382 u4/U74
*383 u0/slt4_r_reg\[7\]
*384 u4/dout_reg\[7\]
*385 out_slt4\[8\]
*386 u4/U76
*387 u4/dout_reg\[8\]
*388 u0/slt4_r_reg\[8\]
*389 out_slt4\[9\]
*390 u4/U78
*391 u4/dout_reg\[9\]
*392 u0/slt4_r_reg\[9\]
*393 out_slt4\[10\]
*394 u4/U82
*395 u0/slt4_r_reg\[10\]
*396 u4/dout_reg\[10\]
*397 out_slt4\[11\]
*398 u4/U84
*399 u0/slt4_r_reg\[11\]
*400 u4/dout_reg\[11\]
*401 out_slt4\[12\]
*402 u4/U65
*403 u4/dout_reg\[12\]
*404 u0/slt4_r_reg\[12\]
*405 out_slt4\[13\]
*406 u4/U67
*407 u4/dout_reg\[13\]
*408 u0/slt4_r_reg\[13\]
*409 out_slt4\[14\]
*410 u4/U49
*411 u4/dout_reg\[14\]
*412 u0/slt4_r_reg\[14\]
*413 out_slt4\[15\]
*414 u4/U51
*415 u4/dout_reg\[15\]
*416 u0/slt4_r_reg\[15\]
*417 out_slt4\[16\]
*418 u4/U53
*419 u4/dout_reg\[16\]
*420 u0/slt4_r_reg\[16\]
*421 out_slt4\[17\]
*422 u4/U55
*423 u0/slt4_r_reg\[17\]
*424 u4/dout_reg\[17\]
*425 out_slt4\[18\]
*426 u0/slt4_r_reg\[18\]
*427 u4/U57
*428 u4/dout_reg\[18\]
*429 out_slt4\[19\]
*430 u0/slt4_r_reg\[19\]
*431 u4/U59
*432 u4/dout_reg\[19\]
*433 out_slt3\[0\]
*434 u3/U93
*435 u3/dout_reg\[0\]
*436 u0/slt3_r_reg\[0\]
*437 out_slt3\[1\]
*438 u3/U94
*439 u3/dout_reg\[1\]
*440 u0/slt3_r_reg\[1\]
*441 out_slt3\[2\]
*442 u3/U80
*443 u3/dout_reg\[2\]
*444 u0/slt3_r_reg\[2\]
*445 out_slt3\[3\]
*446 u3/U81
*447 u3/dout_reg\[3\]
*448 u0/slt3_r_reg\[3\]
*449 out_slt3\[4\]
*450 u3/U61
*451 u3/dout_reg\[4\]
*452 u0/slt3_r_reg\[4\]
*453 out_slt3\[5\]
*454 u3/U63
*455 u3/dout_reg\[5\]
*456 u0/slt3_r_reg\[5\]
*457 out_slt3\[6\]
*458 u3/U72
*459 u3/dout_reg\[6\]
*460 u0/slt3_r_reg\[6\]
*461 out_slt3\[7\]
*462 u3/U74
*463 u3/dout_reg\[7\]
*464 u0/slt3_r_reg\[7\]
*465 out_slt3\[8\]
*466 u3/U76
*467 u3/dout_reg\[8\]
*468 u0/slt3_r_reg\[8\]
*469 out_slt3\[9\]
*470 u3/U78
*471 u3/dout_reg\[9\]
*472 u0/slt3_r_reg\[9\]
*473 out_slt3\[10\]
*474 u3/U82
*475 u3/dout_reg\[10\]
*476 u0/slt3_r_reg\[10\]
*477 out_slt3\[11\]
*478 u3/U84
*479 u3/dout_reg\[11\]
*480 u0/slt3_r_reg\[11\]
*481 out_slt3\[12\]
*482 u3/U65
*483 u3/dout_reg\[12\]
*484 u0/slt3_r_reg\[12\]
*485 out_slt3\[13\]
*486 u3/U67
*487 u3/dout_reg\[13\]
*488 u0/slt3_r_reg\[13\]
*489 out_slt3\[14\]
*490 u3/U49
*491 u3/dout_reg\[14\]
*492 u0/slt3_r_reg\[14\]
*493 out_slt3\[15\]
*494 u3/U51
*495 u3/dout_reg\[15\]
*496 u0/slt3_r_reg\[15\]
*497 out_slt3\[16\]
*498 u3/U53
*499 u3/dout_reg\[16\]
*500 u0/slt3_r_reg\[16\]
*501 out_slt3\[17\]
*502 u3/U55
*503 u3/dout_reg\[17\]
*504 u0/slt3_r_reg\[17\]
*505 out_slt3\[18\]
*506 u3/U57
*507 u3/dout_reg\[18\]
*508 u0/slt3_r_reg\[18\]
*509 out_slt3\[19\]
*510 u3/U59
*511 u3/dout_reg\[19\]
*512 u0/slt3_r_reg\[19\]
*513 out_slt7\[1\]
*514 u6/U91
*515 u6/dout_reg\[1\]
*516 u0/slt7_r_reg\[1\]
*517 out_slt7\[2\]
*518 u6/U80
*519 u6/dout_reg\[2\]
*520 u0/slt7_r_reg\[2\]
*521 out_slt7\[3\]
*522 u6/U81
*523 u6/dout_reg\[3\]
*524 u0/slt7_r_reg\[3\]
*525 out_slt7\[4\]
*526 u6/U61
*527 u0/slt7_r_reg\[4\]
*528 u6/dout_reg\[4\]
*529 out_slt7\[5\]
*530 u6/U63
*531 u0/slt7_r_reg\[5\]
*532 u6/dout_reg\[5\]
*533 out_slt7\[6\]
*534 u6/U72
*535 u0/slt7_r_reg\[6\]
*536 u6/dout_reg\[6\]
*537 out_slt7\[7\]
*538 u6/U74
*539 u6/dout_reg\[7\]
*540 u0/slt7_r_reg\[7\]
*541 out_slt7\[8\]
*542 u6/U76
*543 u6/dout_reg\[8\]
*544 u0/slt7_r_reg\[8\]
*545 out_slt7\[9\]
*546 u6/U78
*547 u0/slt7_r_reg\[9\]
*548 u6/dout_reg\[9\]
*549 out_slt7\[10\]
*550 u6/dout_reg\[10\]
*551 u0/slt7_r_reg\[10\]
*552 u6/U82
*553 out_slt7\[11\]
*554 u0/slt7_r_reg\[11\]
*555 u6/U84
*556 u6/dout_reg\[11\]
*557 out_slt7\[12\]
*558 u6/dout_reg\[12\]
*559 u6/U65
*560 u0/slt7_r_reg\[12\]
*561 out_slt7\[13\]
*562 u0/slt7_r_reg\[13\]
*563 u6/dout_reg\[13\]
*564 u6/U67
*565 out_slt7\[14\]
*566 u6/U49
*567 u6/dout_reg\[14\]
*568 u0/slt7_r_reg\[14\]
*569 out_slt7\[15\]
*570 u6/U51
*571 u0/slt7_r_reg\[15\]
*572 u6/dout_reg\[15\]
*573 out_slt7\[16\]
*574 u6/U53
*575 u6/dout_reg\[16\]
*576 u0/slt7_r_reg\[16\]
*577 out_slt7\[17\]
*578 u6/U55
*579 u0/slt7_r_reg\[17\]
*580 u6/dout_reg\[17\]
*581 out_slt7\[18\]
*582 u6/U57
*583 u0/slt7_r_reg\[18\]
*584 u6/dout_reg\[18\]
*585 out_slt7\[19\]
*586 u6/U59
*587 u6/dout_reg\[19\]
*588 u0/slt7_r_reg\[19\]
*589 out_slt6\[0\]
*590 u0/slt6_r_reg\[0\]
*591 u5/U87
*592 u5/dout_reg\[0\]
*593 out_slt6\[1\]
*594 u0/slt6_r_reg\[1\]
*595 u5/dout_reg\[1\]
*596 u5/U88
*597 out_slt6\[2\]
*598 u0/slt6_r_reg\[2\]
*599 u5/U80
*600 u5/dout_reg\[2\]
*601 out_slt6\[3\]
*602 u5/U81
*603 u0/slt6_r_reg\[3\]
*604 u5/dout_reg\[3\]
*605 out_slt6\[4\]
*606 u5/U61
*607 u0/slt6_r_reg\[4\]
*608 u5/dout_reg\[4\]
*609 out_slt6\[5\]
*610 u5/U63
*611 u5/dout_reg\[5\]
*612 u0/slt6_r_reg\[5\]
*613 out_slt6\[6\]
*614 u5/U72
*615 u0/slt6_r_reg\[6\]
*616 u5/dout_reg\[6\]
*617 out_slt6\[7\]
*618 u5/U74
*619 u0/slt6_r_reg\[7\]
*620 u5/dout_reg\[7\]
*621 out_slt6\[8\]
*622 u5/U76
*623 u0/slt6_r_reg\[8\]
*624 u5/dout_reg\[8\]
*625 out_slt6\[9\]
*626 u5/U78
*627 u5/dout_reg\[9\]
*628 u0/slt6_r_reg\[9\]
*629 out_slt6\[10\]
*630 u5/U82
*631 u0/slt6_r_reg\[10\]
*632 u5/dout_reg\[10\]
*633 out_slt6\[11\]
*634 u5/U84
*635 u0/slt6_r_reg\[11\]
*636 u5/dout_reg\[11\]
*637 out_slt6\[12\]
*638 u5/U65
*639 u0/slt6_r_reg\[12\]
*640 u5/dout_reg\[12\]
*641 out_slt6\[13\]
*642 u5/U67
*643 u5/dout_reg\[13\]
*644 u0/slt6_r_reg\[13\]
*645 out_slt6\[14\]
*646 u5/U49
*647 u0/slt6_r_reg\[14\]
*648 u5/dout_reg\[14\]
*649 out_slt6\[15\]
*650 u5/U51
*651 u5/dout_reg\[15\]
*652 u0/slt6_r_reg\[15\]
*653 out_slt6\[16\]
*654 u5/U53
*655 u5/dout_reg\[16\]
*656 u0/slt6_r_reg\[16\]
*657 out_slt6\[17\]
*658 u5/U55
*659 u5/dout_reg\[17\]
*660 u0/slt6_r_reg\[17\]
*661 out_slt6\[18\]
*662 u5/U57
*663 u0/slt6_r_reg\[18\]
*664 u5/dout_reg\[18\]
*665 out_slt6\[19\]
*666 u5/U59
*667 u5/dout_reg\[19\]
*668 u0/slt6_r_reg\[19\]
*669 n65
*670 u3/U95
*671 u3/U120
*672 u7/U95
*673 u3/U46
*674 u3/U98
*675 u7/U120
*676 u5/U93
*677 u5/U128
*678 u7/U46
*679 u7/U98
*680 u5/U102
*681 u5/U41
*682 n68
*683 u3/U152
*684 u3/U96
*685 u3/U47
*686 u7/U96
*687 u3/U99
*688 u7/U151
*689 u5/U94
*690 u5/U155
*691 u7/U47
*692 u7/U99
*693 u5/U42
*694 u5/U103
*695 n71
*696 u3/U121
*697 u3/U100
*698 u3/U97
*699 u3/U45
*700 u7/U97
*701 u7/U121
*702 u5/U95
*703 u5/U129
*704 u7/U100
*705 u7/U45
*706 u5/U32
*707 u5/U104
*708 n34
*709 u3/U319
*710 u3/U314
*711 u3/U333
*712 u7/U319
*713 u3/U324
*714 u7/U312
*715 u5/U319
*716 u5/U312
*717 u7/U326
*718 u7/U333
*719 u5/U333
*720 u5/U326
*721 n31
*722 u3/U313
*723 u3/U318
*724 u3/U332
*725 u7/U320
*726 u3/U329
*727 u7/U313
*728 u5/U320
*729 u5/U313
*730 u7/U327
*731 u5/U334
*732 u5/U327
*733 u7/U335
*734 n28
*735 u3/U322
*736 u3/U312
*737 u3/U336
*738 u7/U321
*739 u3/U328
*740 u7/U314
*741 u5/U321
*742 u5/U314
*743 u5/U335
*744 u5/U328
*745 u7/U328
*746 u7/U334
*747 n25
*748 u3/U321
*749 u3/U315
*750 u3/U335
*751 u7/U322
*752 u3/U327
*753 u7/U315
*754 u5/U322
*755 u5/U315
*756 u5/U329
*757 u5/U336
*758 u7/U329
*759 u7/U336
*760 out_slt8\[0\]
*761 u7/U91
*762 u0/slt8_r_reg\[0\]
*763 u7/dout_reg\[0\]
*764 out_slt8\[1\]
*765 u7/U92
*766 u0/slt8_r_reg\[1\]
*767 u7/dout_reg\[1\]
*768 out_slt8\[2\]
*769 u7/U80
*770 u0/slt8_r_reg\[2\]
*771 u7/dout_reg\[2\]
*772 out_slt8\[3\]
*773 u7/U81
*774 u7/dout_reg\[3\]
*775 u0/slt8_r_reg\[3\]
*776 out_slt8\[4\]
*777 u7/U61
*778 u7/dout_reg\[4\]
*779 u0/slt8_r_reg\[4\]
*780 out_slt8\[5\]
*781 u7/U63
*782 u7/dout_reg\[5\]
*783 u0/slt8_r_reg\[5\]
*784 out_slt8\[6\]
*785 u7/U72
*786 u7/dout_reg\[6\]
*787 u0/slt8_r_reg\[6\]
*788 out_slt8\[7\]
*789 u7/U74
*790 u7/dout_reg\[7\]
*791 u0/slt8_r_reg\[7\]
*792 out_slt8\[8\]
*793 u7/U76
*794 u7/dout_reg\[8\]
*795 u0/slt8_r_reg\[8\]
*796 out_slt8\[9\]
*797 u7/U78
*798 u7/dout_reg\[9\]
*799 u0/slt8_r_reg\[9\]
*800 out_slt8\[10\]
*801 u7/U82
*802 u7/dout_reg\[10\]
*803 u0/slt8_r_reg\[10\]
*804 out_slt8\[11\]
*805 u7/U84
*806 u7/dout_reg\[11\]
*807 u0/slt8_r_reg\[11\]
*808 out_slt8\[12\]
*809 u7/U65
*810 u7/dout_reg\[12\]
*811 u0/slt8_r_reg\[12\]
*812 out_slt8\[13\]
*813 u7/U67
*814 u7/dout_reg\[13\]
*815 u0/slt8_r_reg\[13\]
*816 out_slt8\[14\]
*817 u7/U49
*818 u7/dout_reg\[14\]
*819 u0/slt8_r_reg\[14\]
*820 out_slt8\[15\]
*821 u7/U51
*822 u7/dout_reg\[15\]
*823 u0/slt8_r_reg\[15\]
*824 out_slt8\[16\]
*825 u7/U53
*826 u7/dout_reg\[16\]
*827 u0/slt8_r_reg\[16\]
*828 out_slt8\[17\]
*829 u7/U55
*830 u0/slt8_r_reg\[17\]
*831 u7/dout_reg\[17\]
*832 out_slt8\[18\]
*833 u7/U57
*834 u0/slt8_r_reg\[18\]
*835 u7/dout_reg\[18\]
*836 out_slt8\[19\]
*837 u7/U59
*838 u0/slt8_r_reg\[19\]
*839 u7/dout_reg\[19\]
*840 n91
*841 u6/U98
*842 u6/U153
*843 u6/U92
*844 u6/U35
*845 u5/U89
*846 u5/U152
*847 u4/U92
*848 u5/U98
*849 u5/U33
*850 u4/U98
*851 u4/U35
*852 u4/U152
*853 n88
*854 u6/U124
*855 u6/U99
*856 u6/U36
*857 u6/U93
*858 u5/U123
*859 u5/U90
*860 u4/U124
*861 u4/U99
*862 u4/U93
*863 u5/U99
*864 u4/U36
*865 u5/U34
*866 n46
*867 u6/U154
*868 u6/U94
*869 u6/U100
*870 u6/U37
*871 u5/U153
*872 u5/U91
*873 u4/U153
*874 u4/U94
*875 u5/U100
*876 u4/U100
*877 u4/U37
*878 u5/U35
*879 n49
*880 u6/U101
*881 u6/U125
*882 u6/U38
*883 u6/U95
*884 u5/U92
*885 u5/U124
*886 u4/U101
*887 u4/U95
*888 u5/U101
*889 u4/U38
*890 u4/U125
*891 u5/U36
*892 n52
*893 u6/U140
*894 u6/U126
*895 u6/U156
*896 u6/U39
*897 u5/U139
*898 u5/U125
*899 u4/U139
*900 u5/U156
*901 u4/U155
*902 u4/U39
*903 u5/U37
*904 u4/U126
*905 n55
*906 u6/U141
*907 u6/U157
*908 u6/U127
*909 u6/U40
*910 u5/U140
*911 u5/U126
*912 u4/U140
*913 u5/U157
*914 u4/U156
*915 u4/U127
*916 u4/U40
*917 u5/U38
*918 n58
*919 u6/U41
*920 u6/U158
*921 u6/U155
*922 u6/U142
*923 u5/U141
*924 u5/U154
*925 u5/U158
*926 u5/U39
*927 u4/U41
*928 u4/U157
*929 u4/U141
*930 u4/U154
*931 n61
*932 u6/U42
*933 u6/U159
*934 u6/U143
*935 u6/U128
*936 u5/U142
*937 u5/U127
*938 u5/U159
*939 u5/U40
*940 u4/U142
*941 u4/U128
*942 u4/U158
*943 u4/U42
*944 n73
*945 u6/U43
*946 u6/U96
*947 u6/U97
*948 u6/U120
*949 u5/U119
*950 u5/U96
*951 u4/U43
*952 u4/U120
*953 u5/U97
*954 u5/U43
*955 u4/U96
*956 u4/U97
*957 n76
*958 u6/U148
*959 u6/U144
*960 u6/U121
*961 u6/U44
*962 u5/U143
*963 u4/U143
*964 u4/U121
*965 u5/U120
*966 u4/U147
*967 u4/U44
*968 u5/U147
*969 u5/U44
*970 n79
*971 u6/U145
*972 u6/U149
*973 u6/U45
*974 u6/U122
*975 u5/U144
*976 u5/U121
*977 u4/U144
*978 u4/U45
*979 u4/U122
*980 u5/U45
*981 u4/U148
*982 u5/U148
*983 n82
*984 u6/U146
*985 u6/U150
*986 u6/U123
*987 u6/U46
*988 u5/U145
*989 u5/U122
*990 u4/U145
*991 u4/U46
*992 u5/U149
*993 u4/U149
*994 u4/U123
*995 u5/U46
*996 n85
*997 u6/U47
*998 u6/U151
*999 u6/U147
*1000 u6/U152
*1001 u5/U146
*1002 u5/U151
*1003 u4/U151
*1004 u4/U47
*1005 u5/U150
*1006 u4/U146
*1007 u4/U150
*1008 u5/U47
*1009 n43
*1010 u6/U330
*1011 u6/U316
*1012 u6/U323
*1013 u6/U309
*1014 u5/U316
*1015 u4/U316
*1016 u4/U309
*1017 u5/U309
*1018 u4/U330
*1019 u4/U323
*1020 u5/U323
*1021 u5/U330
*1022 n40
*1023 u6/U331
*1024 u6/U324
*1025 u6/U317
*1026 u6/U310
*1027 u5/U310
*1028 u5/U317
*1029 u4/U310
*1030 u4/U331
*1031 u4/U324
*1032 u4/U317
*1033 u5/U331
*1034 u5/U324
*1035 n37
*1036 u6/U318
*1037 u6/U325
*1038 u6/U332
*1039 u6/U311
*1040 u5/U318
*1041 u5/U311
*1042 u4/U332
*1043 u4/U325
*1044 u5/U325
*1045 u4/U318
*1046 u5/U332
*1047 u4/U311
*1048 out_slt7\[0\]
*1049 u6/U90
*1050 u6/dout_reg\[0\]
*1051 u0/slt7_r_reg\[0\]
*1052 in_slt3\[8\]
*1053 u9/U213
*1054 u9/U330
*1055 u9/U333
*1056 u9/U154
*1057 u9/U61
*1058 u9/U81
*1059 u9/U126
*1060 u1/U54
*1061 u1/slt3_reg\[8\]
*1062 in_slt3\[9\]
*1063 u9/U214
*1064 u9/U62
*1065 u9/U179
*1066 u9/U334
*1067 u9/U155
*1068 u9/U127
*1069 u9/U82
*1070 u1/slt3_reg\[9\]
*1071 in_slt3\[10\]
*1072 u9/U215
*1073 u9/U178
*1074 u9/U156
*1075 u9/U63
*1076 u9/U83
*1077 u9/U128
*1078 u1/slt3_reg\[10\]
*1079 in_slt3\[11\]
*1080 u9/U216
*1081 u9/U64
*1082 u9/U157
*1083 u9/U180
*1084 u9/U129
*1085 u9/U84
*1086 u1/slt3_reg\[11\]
*1087 in_slt3\[12\]
*1088 u9/U47
*1089 u9/U158
*1090 u9/U217
*1091 u9/U182
*1092 u9/U65
*1093 u9/U130
*1094 u1/U74
*1095 u1/slt3_reg\[12\]
*1096 in_slt3\[13\]
*1097 u9/U203
*1098 u9/U48
*1099 u9/U159
*1100 u9/U183
*1101 u9/U131
*1102 u9/U66
*1103 u1/slt3_reg\[13\]
*1104 in_slt3\[14\]
*1105 u9/U49
*1106 u9/U160
*1107 u9/U204
*1108 u9/U184
*1109 u9/U132
*1110 u9/U67
*1111 u1/slt3_reg\[14\]
*1112 in_slt3\[15\]
*1113 u9/U205
*1114 u9/U50
*1115 u9/U161
*1116 u9/U185
*1117 u9/U133
*1118 u9/U68
*1119 u1/slt3_reg\[15\]
*1120 in_slt3\[16\]
*1121 u9/U51
*1122 u9/U206
*1123 u9/U162
*1124 u9/U134
*1125 u9/U69
*1126 u9/U186
*1127 u1/U94
*1128 u1/slt3_reg\[16\]
*1129 in_slt3\[17\]
*1130 u9/U52
*1131 u9/U163
*1132 u9/U207
*1133 u9/U187
*1134 u9/U135
*1135 u9/U70
*1136 u1/slt3_reg\[17\]
*1137 in_slt3\[18\]
*1138 u9/U53
*1139 u9/U164
*1140 u9/U208
*1141 u9/U136
*1142 u9/U71
*1143 u9/U189
*1144 u1/slt3_reg\[18\]
*1145 in_slt3\[19\]
*1146 u9/U54
*1147 u9/U165
*1148 u9/U209
*1149 u9/U137
*1150 u9/U190
*1151 u9/U72
*1152 u1/U135
*1153 u1/slt3_reg\[19\]
*1154 n23
*1155 u8/U307
*1156 u8/U308
*1157 u8/U306
*1158 u8/U309
*1159 u6/U308
*1160 u3/U305
*1161 u3/U306
*1162 u6/U306
*1163 u6/U307
*1164 u6/U305
*1165 u3/U308
*1166 u3/U307
*1167 n20
*1168 u8/U294
*1169 u8/U282
*1170 u8/U300
*1171 u8/U288
*1172 u6/U299
*1173 u6/U287
*1174 u6/U281
*1175 u6/U293
*1176 n17
*1177 u8/U283
*1178 u8/U289
*1179 u8/U301
*1180 u8/U295
*1181 u6/U300
*1182 u6/U282
*1183 u6/U294
*1184 u6/U288
*1185 n14
*1186 u8/U296
*1187 u8/U284
*1188 u8/U290
*1189 u8/U302
*1190 u6/U301
*1191 u6/U289
*1192 u6/U283
*1193 u6/U295
*1194 n11
*1195 u8/U297
*1196 u8/U291
*1197 u8/U303
*1198 u8/U285
*1199 u6/U290
*1200 u6/U302
*1201 u6/U296
*1202 u6/U284
*1203 n8
*1204 u8/U298
*1205 u8/U292
*1206 u8/U286
*1207 u8/U304
*1208 u6/U303
*1209 u6/U291
*1210 u6/U285
*1211 u6/U297
*1212 n2
*1213 u8/U274
*1214 u8/U276
*1215 u8/U278
*1216 u8/U280
*1217 u3/U275
*1218 u3/U274
*1219 u3/U279
*1220 u3/U278
*1221 u7/U275
*1222 u7/U273
*1223 U7
*1224 u7/U277
*1225 u7/U280
*1226 n1
*1227 u8/U277
*1228 u8/U279
*1229 u8/U275
*1230 u8/U281
*1231 u3/U276
*1232 u3/U273
*1233 u3/U277
*1234 u3/U280
*1235 u7/U276
*1236 u7/U274
*1237 U6
*1238 u7/U278
*1239 u7/U279
*1240 n5
*1241 u8/U299
*1242 u8/U293
*1243 u8/U287
*1244 u8/U305
*1245 u6/U292
*1246 u6/U304
*1247 u6/U286
*1248 u6/U298
*1249 out_slt9\[0\]
*1250 u8/U96
*1251 u8/dout_reg\[0\]
*1252 u0/slt9_r_reg\[0\]
*1253 out_slt9\[1\]
*1254 u8/U97
*1255 u0/slt9_r_reg\[1\]
*1256 u8/dout_reg\[1\]
*1257 out_slt9\[2\]
*1258 u8/U80
*1259 u0/slt9_r_reg\[2\]
*1260 u8/dout_reg\[2\]
*1261 out_slt9\[3\]
*1262 u8/dout_reg\[3\]
*1263 u8/U81
*1264 u0/slt9_r_reg\[3\]
*1265 out_slt9\[4\]
*1266 u8/dout_reg\[4\]
*1267 u8/U61
*1268 u0/slt9_r_reg\[4\]
*1269 out_slt9\[5\]
*1270 u8/U63
*1271 u8/dout_reg\[5\]
*1272 u0/slt9_r_reg\[5\]
*1273 out_slt9\[6\]
*1274 u8/dout_reg\[6\]
*1275 u8/U72
*1276 u0/slt9_r_reg\[6\]
*1277 out_slt9\[7\]
*1278 u8/dout_reg\[7\]
*1279 u8/U74
*1280 u0/slt9_r_reg\[7\]
*1281 out_slt9\[8\]
*1282 u8/U76
*1283 u8/dout_reg\[8\]
*1284 u0/slt9_r_reg\[8\]
*1285 out_slt9\[9\]
*1286 u0/slt9_r_reg\[9\]
*1287 u8/U78
*1288 u8/dout_reg\[9\]
*1289 out_slt9\[10\]
*1290 u8/U82
*1291 u0/slt9_r_reg\[10\]
*1292 u8/dout_reg\[10\]
*1293 out_slt9\[11\]
*1294 u8/U84
*1295 u0/slt9_r_reg\[11\]
*1296 u8/dout_reg\[11\]
*1297 out_slt9\[12\]
*1298 u8/U65
*1299 u8/dout_reg\[12\]
*1300 u0/slt9_r_reg\[12\]
*1301 out_slt9\[13\]
*1302 u8/U67
*1303 u8/dout_reg\[13\]
*1304 u0/slt9_r_reg\[13\]
*1305 out_slt9\[14\]
*1306 u8/U49
*1307 u0/slt9_r_reg\[14\]
*1308 u8/dout_reg\[14\]
*1309 out_slt9\[15\]
*1310 u8/U51
*1311 u8/dout_reg\[15\]
*1312 u0/slt9_r_reg\[15\]
*1313 out_slt9\[16\]
*1314 u8/U53
*1315 u8/dout_reg\[16\]
*1316 u0/slt9_r_reg\[16\]
*1317 out_slt9\[17\]
*1318 u8/U55
*1319 u8/dout_reg\[17\]
*1320 u0/slt9_r_reg\[17\]
*1321 out_slt9\[18\]
*1322 u8/U57
*1323 u0/slt9_r_reg\[18\]
*1324 u8/dout_reg\[18\]
*1325 out_slt9\[19\]
*1326 u8/U59
*1327 u8/dout_reg\[19\]
*1328 u0/slt9_r_reg\[19\]
*1329 in_slt6\[17\]
*1330 u11/U206
*1331 u11/U174
*1332 u11/U204
*1333 u11/U74
*1334 u11/U168
*1335 u1/U97
*1336 u11/U136
*1337 u1/slt6_reg\[17\]
*1338 u11/U104
*1339 in_slt6\[18\]
*1340 u11/U207
*1341 u11/U205
*1342 u11/U175
*1343 u11/U75
*1344 u11/U169
*1345 u1/U102
*1346 u11/U105
*1347 u11/U137
*1348 u1/slt6_reg\[18\]
*1349 in_slt6\[19\]
*1350 u11/U196
*1351 u11/U208
*1352 u11/U76
*1353 u11/U170
*1354 u11/U106
*1355 u1/slt6_reg\[19\]
*1356 u11/U138
*1357 in_slt4\[0\]
*1358 u1/U34
*1359 u10/U330
*1360 u1/slt4_reg\[0\]
*1361 in_slt4\[1\]
*1362 u1/U109
*1363 u10/U336
*1364 u1/slt4_reg\[1\]
*1365 in_slt4\[2\]
*1366 u10/U335
*1367 u1/slt4_reg\[2\]
*1368 in_slt4\[3\]
*1369 u1/slt4_reg\[3\]
*1370 u10/U174
*1371 u1/U119
*1372 in_slt4\[4\]
*1373 u10/U331
*1374 u10/U182
*1375 u10/U206
*1376 u1/slt4_reg\[4\]
*1377 in_slt4\[5\]
*1378 u1/U128
*1379 u10/U207
*1380 u10/U183
*1381 u10/U332
*1382 u1/slt4_reg\[5\]
*1383 in_slt4\[6\]
*1384 u10/U185
*1385 u1/U43
*1386 u10/U333
*1387 u10/U208
*1388 u1/slt4_reg\[6\]
*1389 in_slt4\[7\]
*1390 u10/U198
*1391 u10/U186
*1392 u10/U334
*1393 u1/slt4_reg\[7\]
*1394 in_slt4\[8\]
*1395 u10/U140
*1396 u10/U329
*1397 u10/U128
*1398 u10/U209
*1399 u10/U64
*1400 u1/U53
*1401 u10/U96
*1402 u1/slt4_reg\[8\]
*1403 in_slt4\[9\]
*1404 u10/U176
*1405 u10/U210
*1406 u1/slt4_reg\[9\]
*1407 u10/U129
*1408 u10/U65
*1409 u10/U97
*1410 u10/U141
*1411 in_slt4\[10\]
*1412 u10/U175
*1413 u10/U211
*1414 u1/U63
*1415 u1/slt4_reg\[10\]
*1416 u10/U130
*1417 u10/U66
*1418 u10/U98
*1419 u10/U142
*1420 in_slt4\[11\]
*1421 u10/U177
*1422 u10/U212
*1423 u1/slt4_reg\[11\]
*1424 u10/U143
*1425 u10/U67
*1426 u10/U131
*1427 u10/U99
*1428 in_slt4\[12\]
*1429 u10/U178
*1430 u10/U213
*1431 u1/U73
*1432 u1/slt4_reg\[12\]
*1433 u10/U144
*1434 u10/U68
*1435 u10/U100
*1436 u10/U132
*1437 in_slt4\[13\]
*1438 u10/U179
*1439 u10/U199
*1440 u1/slt4_reg\[13\]
*1441 u10/U101
*1442 u10/U145
*1443 u10/U69
*1444 u10/U133
*1445 in_slt4\[14\]
*1446 u10/U180
*1447 u10/U200
*1448 u1/U83
*1449 u10/U146
*1450 u1/slt4_reg\[14\]
*1451 u10/U70
*1452 u10/U134
*1453 u10/U102
*1454 in_slt4\[15\]
*1455 u10/U181
*1456 u10/U201
*1457 u10/U147
*1458 u10/U103
*1459 u1/slt4_reg\[15\]
*1460 u10/U71
*1461 u10/U135
*1462 in_slt4\[16\]
*1463 u10/U202
*1464 u10/U104
*1465 u10/U72
*1466 u1/U93
*1467 u10/U136
*1468 u1/slt4_reg\[16\]
*1469 u10/U148
*1470 in_slt4\[17\]
*1471 u10/U73
*1472 u10/U105
*1473 u10/U203
*1474 u1/slt4_reg\[17\]
*1475 u10/U149
*1476 u10/U137
*1477 in_slt4\[18\]
*1478 u10/U204
*1479 u10/U106
*1480 u10/U138
*1481 u10/U74
*1482 u1/U103
*1483 u10/U150
*1484 u1/slt4_reg\[18\]
*1485 in_slt4\[19\]
*1486 u10/U107
*1487 u10/U139
*1488 u10/U205
*1489 u10/U75
*1490 u1/slt4_reg\[19\]
*1491 u10/U151
*1492 in_slt3\[0\]
*1493 u9/U335
*1494 u1/U35
*1495 u1/slt3_reg\[0\]
*1496 in_slt3\[1\]
*1497 u9/U337
*1498 u1/U110
*1499 u1/slt3_reg\[1\]
*1500 in_slt3\[2\]
*1501 u9/U336
*1502 u1/U115
*1503 u1/slt3_reg\[2\]
*1504 in_slt3\[3\]
*1505 u9/U181
*1506 u1/slt3_reg\[3\]
*1507 u1/U120
*1508 in_slt3\[4\]
*1509 u9/U331
*1510 u9/U210
*1511 u1/slt3_reg\[4\]
*1512 u1/U125
*1513 in_slt3\[5\]
*1514 u9/U332
*1515 u9/U211
*1516 u1/slt3_reg\[5\]
*1517 u1/U129
*1518 in_slt3\[6\]
*1519 u9/U212
*1520 u1/U44
*1521 u1/slt3_reg\[6\]
*1522 in_slt3\[7\]
*1523 u9/U202
*1524 u1/slt3_reg\[7\]
*1525 i4_dout\[17\]
*1526 u10/dout_reg\[17\]
*1527 u12/U52
*1528 i4_dout\[18\]
*1529 u12/U54
*1530 u10/dout_reg\[18\]
*1531 i4_dout\[19\]
*1532 u12/U56
*1533 u10/dout_reg\[19\]
*1534 i4_dout\[20\]
*1535 u10/dout_reg\[20\]
*1536 u12/U58
*1537 i4_dout\[21\]
*1538 u12/U60
*1539 u10/dout_reg\[21\]
*1540 i4_dout\[22\]
*1541 u12/U62
*1542 u10/dout_reg\[22\]
*1543 i4_dout\[23\]
*1544 u12/U64
*1545 u10/dout_reg\[23\]
*1546 i4_dout\[24\]
*1547 u12/U66
*1548 u10/dout_reg\[24\]
*1549 i4_dout\[25\]
*1550 u12/U87
*1551 u10/dout_reg\[25\]
*1552 i4_dout\[26\]
*1553 u12/U89
*1554 u10/dout_reg\[26\]
*1555 i4_dout\[27\]
*1556 u12/U91
*1557 u10/dout_reg\[27\]
*1558 i4_dout\[28\]
*1559 u10/dout_reg\[28\]
*1560 u12/U93
*1561 i4_dout\[29\]
*1562 u12/U95
*1563 u10/dout_reg\[29\]
*1564 i4_dout\[30\]
*1565 u10/dout_reg\[30\]
*1566 u12/U97
*1567 i4_dout\[31\]
*1568 u10/dout_reg\[31\]
*1569 u12/U99
*1570 i6_dout\[0\]
*1571 u11/dout_reg\[0\]
*1572 u12/U69
*1573 i6_dout\[1\]
*1574 u11/dout_reg\[1\]
*1575 u12/U71
*1576 i6_dout\[2\]
*1577 u12/U73
*1578 u11/dout_reg\[2\]
*1579 i6_dout\[3\]
*1580 u11/dout_reg\[3\]
*1581 u12/U75
*1582 i6_dout\[4\]
*1583 u11/dout_reg\[4\]
*1584 u12/U77
*1585 i6_dout\[5\]
*1586 u11/dout_reg\[5\]
*1587 u12/U79
*1588 i6_dout\[6\]
*1589 u11/dout_reg\[6\]
*1590 u12/U81
*1591 i6_dout\[7\]
*1592 u12/U83
*1593 u11/dout_reg\[7\]
*1594 i6_dout\[8\]
*1595 u11/dout_reg\[8\]
*1596 u12/U35
*1597 i6_dout\[9\]
*1598 u12/U37
*1599 u11/dout_reg\[9\]
*1600 i6_dout\[10\]
*1601 u12/U39
*1602 u11/dout_reg\[10\]
*1603 i6_dout\[11\]
*1604 u11/dout_reg\[11\]
*1605 u12/U41
*1606 i6_dout\[12\]
*1607 u11/dout_reg\[12\]
*1608 u12/U43
*1609 i6_dout\[13\]
*1610 u11/dout_reg\[13\]
*1611 u12/U45
*1612 i6_dout\[14\]
*1613 u11/dout_reg\[14\]
*1614 u12/U47
*1615 i6_dout\[15\]
*1616 u11/dout_reg\[15\]
*1617 u12/U49
*1618 i6_dout\[16\]
*1619 u11/dout_reg\[16\]
*1620 u12/U51
*1621 i6_dout\[17\]
*1622 u11/dout_reg\[17\]
*1623 u12/U53
*1624 i6_dout\[18\]
*1625 u11/dout_reg\[18\]
*1626 u12/U55
*1627 i6_dout\[19\]
*1628 u11/dout_reg\[19\]
*1629 u12/U57
*1630 i6_dout\[20\]
*1631 u11/dout_reg\[20\]
*1632 u12/U59
*1633 i6_dout\[21\]
*1634 u11/dout_reg\[21\]
*1635 u12/U61
*1636 i6_dout\[22\]
*1637 u11/dout_reg\[22\]
*1638 u12/U63
*1639 i6_dout\[23\]
*1640 u11/dout_reg\[23\]
*1641 u12/U65
*1642 i6_dout\[24\]
*1643 u11/dout_reg\[24\]
*1644 u12/U67
*1645 i6_dout\[25\]
*1646 u11/dout_reg\[25\]
*1647 u12/U88
*1648 i6_dout\[26\]
*1649 u11/dout_reg\[26\]
*1650 u12/U90
*1651 i6_dout\[27\]
*1652 u11/dout_reg\[27\]
*1653 u12/U92
*1654 i6_dout\[28\]
*1655 u11/dout_reg\[28\]
*1656 u12/U94
*1657 i6_dout\[29\]
*1658 u11/dout_reg\[29\]
*1659 u12/U96
*1660 i6_dout\[30\]
*1661 u11/dout_reg\[30\]
*1662 u12/U98
*1663 i6_dout\[31\]
*1664 u11/dout_reg\[31\]
*1665 u12/U100
*1666 in_slt6\[0\]
*1667 u11/U336
*1668 u1/U107
*1669 u1/slt6_reg\[0\]
*1670 in_slt6\[1\]
*1671 u11/U338
*1672 u1/slt6_reg\[1\]
*1673 in_slt6\[2\]
*1674 u11/U337
*1675 u1/U113
*1676 u1/slt6_reg\[2\]
*1677 in_slt6\[3\]
*1678 u11/U199
*1679 u1/slt6_reg\[3\]
*1680 in_slt6\[4\]
*1681 u11/U332
*1682 u11/U192
*1683 u1/slt6_reg\[4\]
*1684 u1/U123
*1685 in_slt6\[5\]
*1686 u11/U193
*1687 u11/U333
*1688 u1/U41
*1689 u1/slt6_reg\[5\]
*1690 in_slt6\[6\]
*1691 u11/U334
*1692 u11/U194
*1693 u1/slt6_reg\[6\]
*1694 in_slt6\[7\]
*1695 u11/U335
*1696 u11/U42
*1697 u1/U47
*1698 u1/slt6_reg\[7\]
*1699 in_slt6\[8\]
*1700 u11/U195
*1701 u11/U331
*1702 u11/U65
*1703 u11/U159
*1704 u11/U95
*1705 u1/slt6_reg\[8\]
*1706 u11/U127
*1707 in_slt6\[9\]
*1708 u11/U176
*1709 u11/U197
*1710 u11/U160
*1711 u11/U66
*1712 u1/U57
*1713 u11/U96
*1714 u11/U128
*1715 u1/slt6_reg\[9\]
*1716 in_slt6\[10\]
*1717 u11/U177
*1718 u11/U198
*1719 u11/U67
*1720 u11/U161
*1721 u11/U129
*1722 u11/U97
*1723 u1/slt6_reg\[10\]
*1724 in_slt6\[11\]
*1725 u11/U200
*1726 u11/U43
*1727 u11/U162
*1728 u11/U68
*1729 u1/U67
*1730 u11/U130
*1731 u11/U98
*1732 u1/slt6_reg\[11\]
*1733 in_slt6\[12\]
*1734 u11/U178
*1735 u11/U201
*1736 u11/U163
*1737 u11/U69
*1738 u11/U99
*1739 u1/slt6_reg\[12\]
*1740 u11/U131
*1741 in_slt6\[13\]
*1742 u11/U202
*1743 u11/U164
*1744 u11/U171
*1745 u11/U70
*1746 u11/U100
*1747 u11/U132
*1748 u1/U77
*1749 u1/slt6_reg\[13\]
*1750 in_slt6\[14\]
*1751 u11/U172
*1752 u11/U203
*1753 u11/U165
*1754 u11/U71
*1755 u11/U133
*1756 u1/slt6_reg\[14\]
*1757 u11/U101
*1758 in_slt6\[15\]
*1759 u11/U173
*1760 u11/U166
*1761 u11/U72
*1762 u1/U87
*1763 u11/U134
*1764 u11/U102
*1765 u1/slt6_reg\[15\]
*1766 in_slt6\[16\]
*1767 u11/U44
*1768 u11/U73
*1769 u11/U167
*1770 u11/U135
*1771 u11/U103
*1772 u1/slt6_reg\[16\]
*1773 wb_din\[23\]
*1774 u12/dout_reg\[23\]
*1775 u7/U306
*1776 u7/U305
*1777 u7/U308
*1778 u7/U307
*1779 wb_din\[24\]
*1780 u12/dout_reg\[24\]
*1781 u3/U281
*1782 u3/U289
*1783 u3/U301
*1784 u3/U294
*1785 u7/U287
*1786 u7/U281
*1787 u7/U293
*1788 u7/U299
*1789 wb_din\[25\]
*1790 u12/dout_reg\[25\]
*1791 u3/U284
*1792 u3/U288
*1793 u3/U293
*1794 u3/U300
*1795 u7/U288
*1796 u7/U282
*1797 u7/U294
*1798 u7/U300
*1799 wb_din\[26\]
*1800 u12/dout_reg\[26\]
*1801 u3/U283
*1802 u3/U287
*1803 u3/U299
*1804 u3/U297
*1805 u7/U289
*1806 u7/U283
*1807 u7/U295
*1808 u7/U302
*1809 wb_din\[27\]
*1810 u12/dout_reg\[27\]
*1811 u3/U282
*1812 u3/U291
*1813 u3/U303
*1814 u3/U296
*1815 u7/U290
*1816 u7/U284
*1817 u7/U296
*1818 u7/U301
*1819 wb_din\[28\]
*1820 u12/dout_reg\[28\]
*1821 u3/U290
*1822 u3/U285
*1823 u3/U302
*1824 u3/U295
*1825 u7/U291
*1826 u7/U285
*1827 u7/U303
*1828 u7/U297
*1829 wb_din\[31\]