*SPEF "1481-1998"
*DESIGN "des3"
*DATE "Tue May  6 09:23:46 2025"
*VENDOR "Synopsys, Inc."
*PROGRAM "icc_shell"
*VERSION "W-2024.09-SP2"
*DESIGN_FLOW "PIN_CAP NONE"
*DIVIDER /
*DELIMITER :
*BUS_DELIMITER [ ]
*T_UNIT 1 NS
*C_UNIT 1 FF
*R_UNIT 1 OHM
*L_UNIT 1 HENRY

*NAME_MAP
*1 desOut[7]
*2 desOut[6]
*3 desOut[5]
*4 desOut[4]
*5 desOut[3]
*6 desOut[2]
*7 desOut[1]
*8 desOut[0]
*9 desOut[15]
*10 desOut[14]
*11 desOut[13]
*12 desOut[12]
*13 desOut[11]
*14 desOut[10]
*15 desOut[9]
*16 desOut[8]
*17 desOut[23]
*18 desOut[22]
*19 desOut[21]
*20 desOut[20]
*21 desOut[19]
*22 desOut[18]
*23 desOut[17]
*24 desOut[16]
*25 desOut[31]
*26 desOut[30]
*27 desOut[29]
*28 desOut[28]
*29 desOut[27]
*30 desOut[26]
*31 desOut[25]
*32 desOut[24]
*33 desOut[39]
*34 desOut[38]
*35 desOut[37]
*36 desOut[36]
*37 desOut[35]
*38 desOut[34]
*39 desOut[33]
*40 desOut[32]
*41 desOut[47]
*42 desOut[46]
*43 desOut[45]
*44 desOut[44]
*45 desOut[43]
*46 desOut[42]
*47 desOut[41]
*48 desOut[40]
*49 desOut[55]
*50 desOut[54]
*51 desOut[53]
*52 desOut[52]
*53 desOut[51]
*54 desOut[50]
*55 desOut[49]
*56 desOut[48]
*57 desOut[63]
*58 desOut[62]
*59 desOut[61]
*60 desOut[60]
*61 desOut[59]
*62 desOut[58]
*63 desOut[57]
*64 desOut[56]
*65 desIn[7]
*66 desIn[6]
*67 desIn[5]
*68 desIn[4]
*69 desIn[3]
*70 desIn[2]
*71 desIn[1]
*72 desIn[0]
*73 desIn[15]
*74 desIn[14]
*75 desIn[13]
*76 desIn[12]
*77 desIn[11]
*78 desIn[10]
*79 desIn[9]
*80 desIn[8]
*81 desIn[23]
*82 desIn[22]
*83 desIn[21]
*84 desIn[20]
*85 desIn[19]
*86 desIn[18]
*87 desIn[17]
*88 desIn[16]
*89 desIn[31]
*90 desIn[30]
*91 desIn[29]
*92 desIn[28]
*93 desIn[27]
*94 desIn[26]
*95 desIn[25]
*96 desIn[24]
*97 desIn[39]
*98 desIn[38]
*99 desIn[37]
*100 desIn[36]
*101 desIn[35]
*102 desIn[34]
*103 desIn[33]
*104 desIn[32]
*105 desIn[47]
*106 desIn[46]
*107 desIn[45]
*108 desIn[44]
*109 desIn[43]
*110 desIn[42]
*111 desIn[41]
*112 desIn[40]
*113 desIn[55]
*114 desIn[54]
*115 desIn[53]
*116 desIn[52]
*117 desIn[51]
*118 desIn[50]
*119 desIn[49]
*120 desIn[48]
*121 desIn[63]
*122 desIn[62]
*123 desIn[61]
*124 desIn[60]
*125 desIn[59]
*126 desIn[58]
*127 desIn[57]
*128 desIn[56]
*129 key1[7]
*130 key1[6]
*131 key1[5]
*132 key1[4]
*133 key1[3]
*134 key1[2]
*135 key1[1]
*136 key1[0]
*137 key1[15]
*138 key1[14]
*139 key1[13]
*140 key1[12]
*141 key1[11]
*142 key1[10]
*143 key1[9]
*144 key1[8]
*145 key1[23]
*146 key1[22]
*147 key1[21]
*148 key1[20]
*149 key1[19]
*150 key1[18]
*151 key1[17]
*152 key1[16]
*153 key1[31]
*154 key1[30]
*155 key1[29]
*156 key1[28]
*157 key1[27]
*158 key1[26]
*159 key1[25]
*160 key1[24]
*161 key1[39]
*162 key1[38]
*163 key1[37]
*164 key1[36]
*165 key1[35]
*166 key1[34]
*167 key1[33]
*168 key1[32]
*169 key1[47]
*170 key1[46]
*171 key1[45]
*172 key1[44]
*173 key1[43]
*174 key1[42]
*175 key1[41]
*176 key1[40]
*177 key1[55]
*178 key1[54]
*179 key1[53]
*180 key1[52]
*181 key1[51]
*182 key1[50]
*183 key1[49]
*184 key1[48]
*185 key2[7]
*186 key2[6]
*187 key2[5]
*188 key2[4]
*189 key2[3]
*190 key2[2]
*191 key2[1]
*192 key2[0]
*193 key2[15]
*194 key2[14]
*195 key2[13]
*196 key2[12]
*197 key2[11]
*198 key2[10]
*199 key2[9]
*200 key2[8]
*201 key2[23]
*202 key2[22]
*203 key2[21]
*204 key2[20]
*205 key2[19]
*206 key2[18]
*207 key2[17]
*208 key2[16]
*209 key2[31]
*210 key2[30]
*211 key2[29]
*212 key2[28]
*213 key2[27]
*214 key2[26]
*215 key2[25]
*216 key2[24]
*217 key2[39]
*218 key2[38]
*219 key2[37]
*220 key2[36]
*221 key2[35]
*222 key2[34]
*223 key2[33]
*224 key2[32]
*225 key2[47]
*226 key2[46]
*227 key2[45]
*228 key2[44]
*229 key2[43]
*230 key2[42]
*231 key2[41]
*232 key2[40]
*233 key2[55]
*234 key2[54]
*235 key2[53]
*236 key2[52]
*237 key2[51]
*238 key2[50]
*239 key2[49]
*240 key2[48]
*241 key3[7]
*242 key3[6]
*243 key3[5]
*244 key3[4]
*245 key3[3]
*246 key3[2]
*247 key3[1]
*248 key3[0]
*249 key3[15]
*250 key3[14]
*251 key3[13]
*252 key3[12]
*253 key3[11]
*254 key3[10]
*255 key3[9]
*256 key3[8]
*257 key3[23]
*258 key3[22]
*259 key3[21]
*260 key3[20]
*261 key3[19]
*262 key3[18]
*263 key3[17]
*264 key3[16]
*265 key3[31]
*266 key3[30]
*267 key3[29]
*268 key3[28]
*269 key3[27]
*270 key3[26]
*271 key3[25]
*272 key3[24]
*273 key3[39]
*274 key3[38]
*275 key3[37]
*276 key3[36]
*277 key3[35]
*278 key3[34]
*279 key3[33]
*280 key3[32]
*281 key3[47]
*282 key3[46]
*283 key3[45]
*284 key3[44]
*285 key3[43]
*286 key3[42]
*287 key3[41]
*288 key3[40]
*289 key3[55]
*290 key3[54]
*291 key3[53]
*292 key3[52]
*293 key3[51]
*294 key3[50]
*295 key3[49]
*296 key3[48]
*297 clk
*298 decrypt
*299 roundSel[5]
*300 roundSel[4]
*301 roundSel[3]
*302 roundSel[2]
*303 roundSel[1]
*304 roundSel[0]
*305 VDD
*306 VSS
*307 u1/n38
*308 u1/U290
*309 u1/U109
*310 u1/n34
*311 u1/U257
*312 u1/U85
*313 u1/n582
*314 u1/U686
*315 u1/U309
*316 u1/U303
*317 u1/U258
*318 u1/U307
*319 u1/U305
*320 u1/U306
*321 u1/U294
*322 u1/U259
*323 u1/U304
*324 u1/U302
*325 u1/U308
*326 u1/U291
*327 u1/U292
*328 u1/U298
*329 u1/U15
*330 u1/n42
*331 u1/U90
*332 u1/n36
*333 u1/U107
*334 u1/n78
*335 u1/U196
*336 u1/U193
*337 u1/U192
*338 u1/U156
*339 u1/U149
*340 u1/U146
*341 u1/U697
*342 u1/U652
*343 u1/U632
*344 u1/U500
*345 u1/U356
*346 u1/U352
*347 u1/U350
*348 u1/U339
*349 u1/n347
*350 u1/U17
*351 u1/n346
*352 u1/U112
*353 u1/n35
*354 u1/U96
*355 u1/n83
*356 u1/U191
*357 u1/U190
*358 u1/U182
*359 u1/U178
*360 u1/U177
*361 u1/U175
*362 u1/U695
*363 u1/U679
*364 u1/U676
*365 u1/U504
*366 u1/U381
*367 u1/U377
*368 u1/U361
*369 u1/U355
*370 u1/n343
*371 u1/U232
*372 u1/U230
*373 u1/U653
*374 u1/U650
*375 u1/U594
*376 u1/U507
*377 u1/U337
*378 u1/U233
*379 u1/n355
*380 u1/U60
*381 u1/n354
*382 u1/U110
*383 u1/n60
*384 u1/U267
*385 u1/U266
*386 u1/U262
*387 u1/U86
*388 u1/U37
*389 u1/U30
*390 u1/U21
*391 u1/U694
*392 u1/U633
*393 u1/U589
*394 u1/U487
*395 u1/U374
*396 u1/U333
*397 u1/U329
*398 u1/n491
*399 u1/U389
*400 u1/U64
*401 u1/U631
*402 u1/U513
*403 u1/U382
*404 u1/n451
*405 u1/U65
*406 u1/n450
*407 u1/U100
*408 u1/n502
*409 u1/U296
*410 u1/U295
*411 u1/U212
*412 u1/U201
*413 u1/U76
*414 u1/U75
*415 u1/U73
*416 u1/U693
*417 u1/U610
*418 u1/U459
*419 u1/U437
*420 u1/U427
*421 u1/U376
*422 u1/U317
*423 u1/U312
*424 u1/n72
*425 u1/U221
*426 u1/U219
*427 u1/U202
*428 u1/U634
*429 u1/U583
*430 u1/U576
*431 u1/U495
*432 u1/U448
*433 u1/U404
*434 u1/n251
*435 u1/U161
*436 u1/n250
*437 u1/U80
*438 u1/n52
*439 u1/U425
*440 u1/U106
*441 u1/U69
*442 u1/U55
*443 u1/U44
*444 u1/U11
*445 u1/U4
*446 u1/U691
*447 u1/U671
*448 u1/U658
*449 u1/U604
*450 u1/U596
*451 u1/U565
*452 u1/U479
*453 u1/U442
*454 u1/n77
*455 u1/U211
*456 u1/U207
*457 u1/U199
*458 u1/U157
*459 u1/U108
*460 u1/U9
*461 u1/U662
*462 u1/U639
*463 u1/U499
*464 u1/U434
*465 u1/U420
*466 u1/U415
*467 u1/U220
*468 u1/n252
*469 u1/U148
*470 u1/n249
*471 u1/U12
*472 u1/n81
*473 u1/U62
*474 u1/U54
*475 u1/U50
*476 u1/U47
*477 u1/U35
*478 u1/U690
*479 u1/U640
*480 u1/U502
*481 u1/U385
*482 u1/U380
*483 u1/U369
*484 u1/U341
*485 u1/U260
*486 u1/n18
*487 u1/U665
*488 u1/U364
*489 u1/U353
*490 u1/U457
*491 u1/U651
*492 u1/U432
*493 u1/U401
*494 u1/U417
*495 u1/U444
*496 u1/U669
*497 u1/U657
*498 u1/U644
*499 u1/U390
*500 u1/U575
*501 u1/U680
*502 u1/U406
*503 u1/U603
*504 u1/U677
*505 u1/U621
*506 u1/U327
*507 u1/U400
*508 u1/U362
*509 u1/U615
*510 u1/U429
*511 u1/U688
*512 u1/U617
*513 u1/U660
*514 u1/U569
*515 u1/U116
*516 u1/U454
*517 u1/U641
*518 u1/U409
*519 u1/U441
*520 u1/U614
*521 u1/U91
*522 u1/n357
*523 u1/U176
*524 u1/n352
*525 u1/U99
*526 u1/n82
*527 u1/U46
*528 u1/U40
*529 u1/U33
*530 u1/U31
*531 u1/U28
*532 u1/U19
*533 u1/U689
*534 u1/U668
*535 u1/U666
*536 u1/U503
*537 u1/U334
*538 u1/U52
*539 u1/n59
*540 u1/U268
*541 u1/U265
*542 u1/U263
*543 u1/U261
*544 u1/U115
*545 u1/U57
*546 u1/U648
*547 u1/U592
*548 u1/U486
*549 u1/U346
*550 u1/U269
*551 u1/n358
*552 u1/U56
*553 u1/n351
*554 u1/n51
*555 u1/U45
*556 u1/U41
*557 u1/U34
*558 u1/U32
*559 u1/U579
*560 u1/U568
*561 u1/U478
*562 u1/U61
*563 u1/U53
*564 u1/n76
*565 u1/U646
*566 u1/U498
*567 u1/U189
*568 u1/U181
*569 u1/U152
*570 u1/U206
*571 u1/U383
*572 u1/U628
*573 u1/U645
*574 u1/n356
*575 u1/n353
*576 u1/n649
*577 u1/U687
*578 u1/U119
*579 u1/U98
*580 u1/U89
*581 u1/U83
*582 U112
*583 u1/n488
*584 u1/U1
*585 u1/U536
*586 u1/U488
*587 u1/n20
*588 u1/U2
*589 u1/n345
*590 u1/U49
*591 u1/U234
*592 u1/U24
*593 u1/U649
*594 u1/U655
*595 u1/U654
*596 u1/U509
*597 u1/U42
*598 u1/n469
*599 u1/U58
*600 u1/n457
*601 u1/U77
*602 u1/n413
*603 u1/U63
*604 u1/n408
*605 u1/U580
*606 u1/n494
*607 u1/U6
*608 u1/U678
*609 u1/U664
*610 u1/U518
*611 u1/n206
*612 u1/n199
*613 u1/U627
*614 u1/n14
*615 u1/U39
*616 u1/U318
*617 u1/U322
*618 u1/U321
*619 u1/U163
*620 u1/U67
*621 u1/U223
*622 u1/U180
*623 u1/U59
*624 u1/U174
*625 u1/U313
*626 u1/U194
*627 u1/U5
*628 u1/U225
*629 u1/U311
*630 u1/U167
*631 u1/U10
*632 u1/U185
*633 u1/U147
*634 u1/U300
*635 u1/U213
*636 u1/U151
*637 u1/U226
*638 u1/U16
*639 u1/n340
*640 u1/U200
*641 u1/n337
*642 u1/U371
*643 u1/n91
*644 u1/U18
*645 u1/n90
*646 u1/U384
*647 u1/n344
*648 u1/U235
*649 u1/U231
*650 u1/U228
*651 u1/U205
*652 u1/U675
*653 u1/U508
*654 u1/U360
*655 u1/U351
*656 u1/U332
*657 u1/U325
*658 u1/n446
*659 u1/n439
*660 u1/U366
*661 u1/n57
*662 u1/U674
*663 u1/U484
*664 u1/U27
*665 u1/U673
*666 u1/U66
*667 u1/n395
*668 u1/U22
*669 u1/n394
*670 u1/U367
*671 u1/n421
*672 u1/n416
*673 u1/U365
*674 u1/n490
*675 u1/U310
*676 u1/U301
*677 u1/U183
*678 u1/U166
*679 u1/U672
*680 u1/U512
*681 u1/U445
*682 u1/U440
*683 u1/U392
*684 u1/n142
*685 u1/n135
*686 u1/U14
*687 u1/n299
*688 u1/U328
*689 u1/n298
*690 u1/U630
*691 u1/n500
*692 u1/U25
*693 u1/U38
*694 u1/U670
*695 u1/U528
*696 u1/U97
*697 u1/U48
*698 u1/U667
*699 u1/n56
*700 u1/U564
*701 u1/U483
*702 u1/n480
*703 u1/n456
*704 u1/U78
*705 u1/n412
*706 u1/n409
*707 u1/n381
*708 u1/n376
*709 u1/U593
*710 u1/n16
*711 u1/U158
*712 u1/U36
*713 u1/U210
*714 u1/U216
*715 u1/U186
*716 u1/U218
*717 u1/U144
*718 u1/U68
*719 u1/U171
*720 u1/U3
*721 u1/U143
*722 u1/U105
*723 u1/U229
*724 u1/U319
*725 u1/U197
*726 u1/U153
*727 u1/U184
*728 u1/U357
*729 u1/U198
*730 u1/U293
*731 u1/U88
*732 u1/n339
*733 u1/n338
*734 u1/n443
*735 u1/n442
*736 u1/n53
*737 u1/U26
*738 u1/U23
*739 u1/U647
*740 u1/U643
*741 u1/U591
*742 u1/U480
*743 u1/n396
*744 u1/n393
*745 u1/n422
*746 u1/n415
*747 u1/n317
*748 u1/U663
*749 u1/n312
*750 u1/U378
*751 u1/n505
*752 u1/U142
*753 u1/U661
*754 u1/U659
*755 u1/U532
*756 u1/U227
*757 u1/n220
*758 u1/n217
*759 u1/U375
*760 u1/n283
*761 u1/U145
*762 u1/n282
*763 u1/U416
*764 u1/n54
*765 u1/U8
*766 u1/U7
*767 u1/U599
*768 u1/U597
*769 u1/U481
*770 u1/U411
*771 u1/n180
*772 u1/n177
*773 u1/U419
*774 u1/n68
*775 u1/U214
*776 u1/U165
*777 u1/U162
*778 u1/U492
*779 u1/U449
*780 u1/U424
*781 u1/U407
*782 u1/U402
*783 u1/U394
*784 u1/n278
*785 u1/n271
*786 u1/U439
*787 u1/n261
*788 u1/U168
*789 u1/n256
*790 u1/U435
*791 u1/n504
*792 u1/U335
*793 u1/U29
*794 u1/U20
*795 u1/U344
*796 u1/U388
*797 u1/U203
*798 u1/U531
*799 u1/U179
*800 u1/U330
*801 u1/n452
*802 u1/n449
*803 u1/U274
*804 u1/K\[12\]
*805 u1/U537
*806 u1/U92
*807 u1/n55
*808 u1/U370
*809 u1/U482
*810 u1/U342
*811 u1/n411
*812 u1/n410
*813 u1/n80
*814 u1/U51
*815 u1/U43
*816 u1/U501
*817 u1/U386
*818 u1/U358
*819 u1/U348
*820 u1/U324
*821 u1/n382
*822 u1/n375
*823 u1/n389
*824 u1/n384
*825 u1/U340
*826 u1/n84
*827 u1/n63
*828 u1/U387
*829 u1/n444
*830 u1/n441
*831 u1/n419
*832 u1/n418
*833 u1/n397
*834 u1/n392
*835 u1/n507
*836 u1/U150
*837 u1/U581
*838 u1/U534
*839 u1/U154
*840 u1/n453
*841 u1/n448
*842 u1/n459
*843 u1/n458
*844 u1/n403
*845 u1/n402
*846 u1/U354
*847 u1/n10
*848 u1/U101
*849 u1/U510
*850 u1/U506
*851 u1/U102
*852 u1/U526
*853 u1/U491
*854 u1/U104
*855 u1/U514
*856 u1/U103
*857 u1/U71
*858 u1/U527
*859 u1/U529
*860 u1/n341
*861 u1/n336
*862 u1/n92
*863 u1/n89
*864 u1/n445
*865 u1/n440
*866 u1/n86
*867 u1/U642
*868 u1/n398
*869 u1/n391
*870 u1/n61
*871 u1/U489
*872 u1/U347
*873 u1/U338
*874 u1/n292
*875 u1/n289
*876 u1/U590
*877 u1/n406
*878 u1/n399
*879 u1/n73
*880 u1/U217
*881 u1/U208
*882 u1/U570
*883 u1/U496
*884 u1/U393
*885 u1/U368
*886 u1/n301
*887 u1/U172
*888 u1/n296
*889 u1/n495
*890 u1/U315
*891 u1/U320
*892 u1/U204
*893 u1/U396
*894 u1/U574
*895 u1/U573
*896 u1/U523
*897 u1/U450
*898 u1/U421
*899 u1/n496
*900 u1/U159
*901 u1/U169
*902 u1/U316
*903 u1/U160
*904 u1/U455
*905 u1/U414
*906 u1/U453
*907 u1/U524
*908 u1/n70
*909 u1/U195
*910 u1/U187
*911 u1/U635
*912 u1/U493
*913 u1/U460
*914 u1/U423
*915 u1/n147
*916 u1/n146
*917 u1/U13
*918 u1/n302
*919 u1/n295
*920 u1/n115
*921 u1/n114
*922 u1/U363
*923 u1/n293
*924 u1/n288
*925 u1/n126
*926 u1/n119
*927 u1/U379
*928 u1/n297
*929 K_sub\[29\]
*930 u0/U46
*931 u1/n498
*932 u1/U373
*933 u1/U297
*934 u1/U173
*935 u1/U405
*936 u1/n118
*937 u1/n111
*938 u1/n200
*939 u1/n202
*940 u1/n201
*941 K_sub\[3\]
*942 u0/U48
*943 u1/n492
*944 u1/U155
*945 u1/U456
*946 u1/U452
*947 u1/n228
*948 u1/n225
*949 u1/U372
*950 u1/n503
*951 u1/U164
*952 u1/U188
*953 u1/U619
*954 u1/U397
*955 u1/U299
*956 u1/U451
*957 u1/U620
*958 u1/U530
*959 u1/U430
*960 u1/U314
*961 u1/n229
*962 u1/n224
*963 u1/n62
*964 u1/U170
*965 u1/U490
*966 u1/U428
*967 u1/U410
*968 u1/U215
*969 u1/n149
*970 u1/n144
*971 u1/n67
*972 u1/U224
*973 u1/U222
*974 u1/U209
*975 u1/U618
*976 u1/U447
*977 u1/U446
*978 u1/U438
*979 u1/n309
*980 u1/n304
*981 u1/U613
*982 u1/n71
*983 u1/U598
*984 u1/U494
*985 u1/U343
*986 u1/n461
*987 u1/U616
*988 u1/U433
*989 u1/U399
*990 u1/U413
*991 u1/U458
*992 u1/n132
*993 u1/n129
*994 u1/U395
*995 u1/n493
*996 u1/U515
*997 u1/n334
*998 u1/n327
*999 u1/U418
*1000 u1/n148
*1001 u1/n145
*1002 u1/n308
*1003 u1/n305
*1004 u1/n306
*1005 K_sub\[28\]
*1006 u0/U43
*1007 u1/n303
*1008 u1/n75
*1009 u1/U497
*1010 u1/U436
*1011 u1/n300
*1012 u1/n499
*1013 u1/n25
*1014 u1/U84
*1015 u1/n222
*1016 u1/n215
*1017 u1/n244
*1018 u1/n241
*1019 u1/U602
*1020 u1/n240
*1021 u1/n242
*1022 K_sub\[35\]
*1023 u0/U35
*1024 u1/n239
*1025 u1/n26
*1026 u1/U95
*1027 u1/n489
*1028 u1/U511
*1029 u1/n246
*1030 u1/n310
*1031 u1/n315
*1032 u1/n314
*1033 u1/n211
*1034 u1/n210
*1035 u1/U422
*1036 u1/n380
*1037 u1/n377
*1038 u1/n378
*1039 K_sub\[1\]
*1040 u0/U40
*1041 u1/n291
*1042 u1/n290
*1043 u1/n85
*1044 u1/U505
*1045 u1/n294
*1046 u1/n287
*1047 K_sub\[2\]
*1048 u0/U37
*1049 u1/n109
*1050 u1/n104
*1051 u1/U326
*1052 u1/n506
*1053 u1/U533
*1054 u1/n24
*1055 u1/U94
*1056 u1/n501
*1057 u1/n307
*1058 u1/n497
*1059 u1/U525
*1060 u1/n117
*1061 u1/n112
*1062 K_sub\[16\]
*1063 u0/U47
*1064 u1/n407
*1065 u1/n379
*1066 u1/n333
*1067 u1/n328
*1068 u1/n316
*1069 u1/n313
*1070 u1/n245
*1071 u1/n139
*1072 u1/n138
*1073 u1/n213
*1074 u1/n208
*1075 u1/n140
*1076 u1/n137
*1077 u1/U81
*1078 u1/n405
*1079 u1/n400
*1080 u1/n23
*1081 u1/U93
*1082 u1/n332
*1083 u1/n329
*1084 u1/n58
*1085 u1/U485
*1086 u1/n110
*1087 u1/n103
*1088 u1/n515
*1089 u1/n516
*1090 u1/n520
*1091 u1/U120
*1092 u1/n517
*1093 u1/U111
*1094 u1/n510
*1095 u1/U72
*1096 u1/n518
*1097 u1/U117
*1098 u1/n28
*1099 u1/n33
*1100 u1/n523
*1101 u1/U123
*1102 u1/n522
*1103 u1/U122
*1104 u1/n521
*1105 u1/U121
*1106 u1/n514
*1107 u1/U538
*1108 U197
*1109 U144
*1110 u1/n512
*1111 u1/U535
*1112 u1/n12
*1113 u1/U74
*1114 u1/n509
*1115 u1/n513
*1116 u1/n508
*1117 u1/n519
*1118 u1/U118
*1119 u1/n11
*1120 u1/n37
*1121 u1/n27
*1122 u1/n470
*1123 u1/U522
*1124 u1/U477
*1125 u1/U476
*1126 u1/U472
*1127 u1/U466
*1128 u1/U517
*1129 u1/U271
*1130 U103
*1131 u1/U519
*1132 u1/U270
*1133 u1/n473
*1134 u1/U521
*1135 u1/U470
*1136 u1/U468
*1137 u1/U462
*1138 u1/U520
*1139 u1/U272
*1140 u1/U516
*1141 u1/U273
*1142 u1/n475
*1143 u1/U475
*1144 u1/U473
*1145 u1/U464
*1146 u1/n651
*1147 u1/U465
*1148 u1/n476
*1149 u1/U474
*1150 u1/U463
*1151 u1/n653
*1152 u1/U467
*1153 u1/n477
*1154 u1/U469
*1155 u1/U461
*1156 u1/n650
*1157 u1/n474
*1158 u1/U471
*1159 u1/n652
*1160 u1/n511
*1161 u1/U70
*1162 u1/n486
*1163 u1/n468
*1164 u1/n467
*1165 u1/n472
*1166 u1/U323
*1167 u1/n464
*1168 u1/n463
*1169 u1/n484
*1170 u1/n483
*1171 u1/n482
*1172 u1/n481
*1173 u1/n471
*1174 u1/n465
*1175 u1/n466
*1176 u1/n479
*1177 u1/n462
*1178 u1/n460
*1179 u1/n478
*1180 u1/n269
*1181 u1/n264
*1182 u1/U431
*1183 u1/n179
*1184 u1/n178
*1185 u1/n275
*1186 u1/n274
*1187 u1/n236
*1188 u1/n233
*1189 u1/U403
*1190 u1/n155
*1191 u1/n154
*1192 u1/U443
*1193 u1/n173
*1194 u1/n168
*1195 u1/U391
*1196 u1/n196
*1197 u1/n193
*1198 u1/U426
*1199 u1/n230
*1200 u1/n223
*1201 u1/n326
*1202 u1/n319
*1203 u1/U408
*1204 u1/n131
*1205 u1/n130
*1206 u1/n219
*1207 u1/n218
*1208 u1/n318
*1209 u1/n311
*1210 u1/n212
*1211 u1/n209
*1212 u1/n331
*1213 u1/n330
*1214 u1/n243
*1215 u1/n157
*1216 u1/n152
*1217 u1/n156
*1218 u1/n153
*1219 K_sub\[45\]
*1220 u0/U9
*1221 u1/n151
*1222 u1/n158
*1223 u1/n276
*1224 u1/n273
*1225 u1/n277
*1226 u1/n272
*1227 K_sub\[31\]
*1228 u0/U28
*1229 u1/n253
*1230 u1/n248
*1231 u1/n260
*1232 u1/n257
*1233 u1/n262
*1234 u1/n255
*1235 u1/n258
*1236 K_sub\[33\]
*1237 u0/U30
*1238 u1/n259
*1239 u1/n270
*1240 u1/n263
*1241 u1/n268
*1242 u1/n265
*1243 u1/n266
*1244 K_sub\[32\]
*1245 u0/U27
*1246 u1/n267
*1247 u1/n188
*1248 u1/n185
*1249 u1/U412
*1250 u1/n197
*1251 u1/n192
*1252 u1/n198
*1253 u1/n191
*1254 u1/n194
*1255 K_sub\[40\]
*1256 u0/U5
*1257 u1/n195
*1258 u1/n214
*1259 u1/n207
*1260 K_sub\[39\]
*1261 u0/U39
*1262 u1/n181
*1263 u1/n176
*1264 u1/n182
*1265 u1/n175
*1266 K_sub\[42\]
*1267 u0/U32
*1268 K_sub\[25\]
*1269 u0/U14
*1270 u1/n284
*1271 u1/n281
*1272 u1/n280
*1273 K_sub\[30\]
*1274 u0/U45
*1275 u1/n279
*1276 u1/n285
*1277 u1/n187
*1278 u1/n186
*1279 u1/n189
*1280 u1/n184
*1281 K_sub\[41\]
*1282 u0/U6
*1283 u1/n183
*1284 u1/n190
*1285 u1/n323
*1286 u1/n322
*1287 u1/n324
*1288 u1/n321
*1289 u1/n320
*1290 K_sub\[26\]
*1291 u0/U44
*1292 u1/n325
*1293 u1/n100
*1294 u1/n97
*1295 u1/U359
*1296 u1/n237
*1297 u1/n232
*1298 u1/n238
*1299 u1/n231
*1300 u1/n234
*1301 K_sub\[36\]
*1302 u0/U29
*1303 u1/n235
*1304 u1/n124
*1305 u1/n121
*1306 u1/n164
*1307 u1/n161
*1308 u1/U398
*1309 u1/n165
*1310 u1/n160
*1311 u1/n162
*1312 K_sub\[44\]
*1313 u0/U12
*1314 u1/n159
*1315 u1/n166
*1316 u1/n134
*1317 u1/n127
*1318 u1/n128
*1319 K_sub\[48\]
*1320 u0/U11
*1321 u1/n133
*1322 u1/n174
*1323 u1/n167
*1324 u1/n171
*1325 u1/n170
*1326 u1/n169
*1327 K_sub\[43\]
*1328 u0/U10
*1329 u1/n172
*1330 u1/n74
*1331 u1/n65
*1332 u1/n69
*1333 u1/n66
*1334 u1/n64
*1335 K_sub\[9\]
*1336 u0/U23
*1337 u1/n79
*1338 u1/n93
*1339 u1/n88
*1340 K_sub\[8\]
*1341 u0/U13
*1342 u1/n87
*1343 u1/n94
*1344 u1/n428
*1345 u1/n425
*1346 u1/U345
*1347 u1/n125
*1348 u1/n120
*1349 u1/n123
*1350 u1/n122
*1351 K_sub\[4\]
*1352 u0/U41
*1353 K_sub\[27\]
*1354 u0/U15
*1355 u1/n342
*1356 u1/n335
*1357 u1/n221
*1358 u1/n216
*1359 K_sub\[38\]
*1360 u0/U38
*1361 u1/n436
*1362 u1/n433
*1363 u1/U336
*1364 u1/n227
*1365 u1/n226
*1366 K_sub\[37\]
*1367 u0/U33
*1368 K_sub\[24\]
*1369 u0/U25
*1370 u1/n374
*1371 u1/n367
*1372 u1/U349
*1373 u1/n366
*1374 u1/n359
*1375 u1/U331
*1376 u1/n254
*1377 u1/n247
*1378 K_sub\[18\]
*1379 u0/U16
*1380 K_sub\[12\]
*1381 u0/U22
*1382 u1/n417
*1383 K_sub\[15\]
*1384 u0/U19
*1385 u1/n420
*1386 u1/n113
*1387 K_sub\[5\]
*1388 u0/U42
*1389 u1/n116
*1390 u1/n102
*1391 u1/n95
*1392 u1/n101
*1393 u1/n96
*1394 u1/n98
*1395 K_sub\[7\]
*1396 u0/U21
*1397 u1/n99
*1398 u1/n107
*1399 u1/n106
*1400 u1/n404
*1401 u1/n401
*1402 K_sub\[17\]
*1403 u0/U4
*1404 u1/n388
*1405 u1/n385
*1406 u1/n204
*1407 u1/n371
*1408 u1/n370
*1409 u1/n372
*1410 u1/n369
*1411 u1/n368
*1412 K_sub\[20\]
*1413 u0/U20
*1414 u1/n373
*1415 u1/n427
*1416 u1/n426
*1417 u1/n430
*1418 u1/n423
*1419 u1/n424
*1420 K_sub\[14\]
*1421 u0/U17
*1422 u1/n429
*1423 u1/n150
*1424 u1/n143
*1425 u1/U82
*1426 u1/n487
*1427 u1/n455
*1428 u1/n387
*1429 u1/n386
*1430 K_sub\[19\]
*1431 u0/U26
*1432 u1/n383
*1433 u1/n390
*1434 u1/n437
*1435 u1/n432
*1436 u1/n438
*1437 u1/n431
*1438 u1/n434
*1439 K_sub\[13\]
*1440 u0/U18
*1441 u1/n435
*1442 u1/n454
*1443 u1/n447
*1444 u1/n364
*1445 u1/n361
*1446 u1/n363
*1447 u1/n362
*1448 u1/n360
*1449 K_sub\[21\]
*1450 u0/U24
*1451 u1/n365
*1452 u1/n414
*1453 u1/n108
*1454 u1/n105
*1455 K_sub\[6\]
*1456 u0/U31
*1457 u1/n205
*1458 u1/n203
*1459 u1/n485
*1460 u1/n163
*1461 u1/n286
*1462 u1/n50
*1463 u1/n49
*1464 u1/n48
*1465 u1/n47
*1466 u1/n46
*1467 u1/n45
*1468 u1/n44
*1469 u1/n43
*1470 u1/n141
*1471 u1/n136
*1472 u1/n41
*1473 u1/n40
*1474 u1/n39
*1475 u1/U87
*1476 u1/n22
*1477 K_sub\[11\]
*1478 u0/U2
*1479 u1/n348
*1480 u1/n349
*1481 u1/n32
*1482 u1/U114
*1483 u1/n31
*1484 u1/n30
*1485 u1/U113
*1486 u1/n29
*1487 u1/n19
*1488 K_sub\[23\]
*1489 u0/U8
*1490 K_sub\[22\]
*1491 u0/U7
*1492 u1/n21
*1493 u1/n350
*1494 u1/n17
*1495 u1/n15
*1496 u1/n13
*1497 u1/n9
*1498 u1/n2
*1499 K_sub\[46\]
*1500 u0/U1
*1501 K_sub\[47\]
*1502 u0/U34
*1503 u1/n3
*1504 K_sub\[34\]
*1505 u0/U36
*1506 u1/n1
*1507 u1/n7
*1508 u1/U79
*1509 u1/n8
*1510 K_sub\[10\]
*1511 u0/U3
*1512 u1/n4
*1513 u1/n5
*1514 u1/n6
*1515 u0/u7/n71
*1516 u0/u7/U105
*1517 u0/u7/U78
*1518 u0/u7/U62
*1519 u0/u7/n96
*1520 u0/u7/U44
*1521 u0/u7/U38
*1522 u0/u7/n61
*1523 u0/u7/U10
*1524 u0/u7/n35
*1525 u0/u7/U104
*1526 u0/u7/U68
*1527 u0/u7/U20
*1528 u0/u7/n87
*1529 u0/u7/U52
*1530 u0/u7/U36
*1531 u0/u7/U35
*1532 u0/u7/n19
*1533 u0/u7/U11
*1534 u0/u7/n89
*1535 u0/u7/U103
*1536 u0/u7/U89
*1537 u0/u7/U85
*1538 u0/u7/U82
*1539 u0/u7/U81
*1540 u0/X\[48\]
*1541 u0/u7/U96
*1542 u0/u7/U13
*1543 u0/u7/n95
*1544 u0/u7/U102
*1545 u0/u7/U86
*1546 u0/X\[45\]
*1547 u0/u7/U97
*1548 u0/u7/n81
*1549 u0/u7/U101
*1550 u0/u7/U83
*1551 u0/u7/U79
*1552 u0/u7/U77
*1553 u0/X\[44\]
*1554 u0/u7/U99
*1555 u0/u7/U95
*1556 u0/u7/n98
*1557 u0/u7/U98
*1558 u0/u7/U75
*1559 u0/u7/n83
*1560 u0/u7/U100
*1561 u0/u7/U87
*1562 u0/u7/U80
*1563 u0/u7/U76
*1564 u0/X\[43\]
*1565 u0/u7/n97
*1566 u0/u7/n86
*1567 u0/u7/U88
*1568 u0/u7/U73
*1569 u0/u7/n99
*1570 u0/u7/n85
*1571 u0/u7/U91
*1572 u0/u7/U90
*1573 u0/u7/n55
*1574 u0/u7/U94
*1575 u0/u7/U93
*1576 u0/u7/U74
*1577 u0/u7/U25
*1578 u0/u7/n10
*1579 u0/u7/U26
*1580 u0/u7/U8
*1581 u0/u7/n70
*1582 u0/u7/U27
*1583 u0/u7/U15
*1584 u0/X\[47\]
*1585 u0/u7/U5
*1586 u0/X\[46\]
*1587 u0/u7/U92
*1588 u0/u7/n88
*1589 u0/u7/n80
*1590 u0/u7/U84
*1591 u0/u7/n58
*1592 u0/u7/U67
*1593 u0/u7/U34
*1594 u0/u7/n82
*1595 u0/u7/U60
*1596 u0/u7/n52
*1597 u0/u7/U70
*1598 u0/u7/U64
*1599 u0/u7/U47
*1600 u0/u7/U3
*1601 u0/u7/n51
*1602 u0/u7/U66
*1603 u0/u7/U63
*1604 u0/u7/U48
*1605 u0/u7/n79
*1606 u0/u7/n31
*1607 u0/u7/U58
*1608 u0/u7/U14
*1609 u0/u7/n30
*1610 u0/u7/U72
*1611 u0/u7/U54
*1612 u0/u7/U32
*1613 u0/u7/U24
*1614 u0/u7/n84
*1615 u0/u7/n50
*1616 u0/u7/U40
*1617 u0/u7/U31
*1618 u0/u7/n28
*1619 u0/u7/U65
*1620 u0/u7/U30
*1621 u0/u7/n29
*1622 u0/u7/U69
*1623 u0/u7/U46
*1624 u0/u7/U29
*1625 u0/u7/n47
*1626 u0/u7/n45
*1627 u0/u7/U56
*1628 u0/u7/n44
*1629 u0/u7/U7
*1630 u0/u7/n59
*1631 u0/u7/U37
*1632 u0/u7/n68
*1633 u0/u7/U4
*1634 u0/u7/n33
*1635 u0/u7/U59
*1636 u0/u7/U6
*1637 u0/u7/n32
*1638 u0/u7/U51
*1639 u0/u7/n34
*1640 u0/u7/n17
*1641 u0/u7/U71
*1642 u0/u7/n41
*1643 u0/u7/U39
*1644 u0/u7/n5
*1645 u0/u7/U16
*1646 u0/u7/n57
*1647 u0/u7/U50
*1648 u0/u7/n60
*1649 u0/u7/U23
*1650 u0/u7/U21
*1651 u0/u7/n15
*1652 u0/u7/U41
*1653 u0/u7/n16
*1654 u0/u7/n46
*1655 u0/u7/n77
*1656 u0/u7/U55
*1657 u0/u7/n78
*1658 u0/u7/n94
*1659 u0/u7/U33
*1660 u0/u7/n48
*1661 u0/u7/n49
*1662 u0/u7/n92
*1663 u0/u7/U43
*1664 u0/u7/n67
*1665 u0/u7/n26
*1666 u0/u7/U28
*1667 u0/u7/n43
*1668 u0/u7/n40
*1669 u0/u7/U61
*1670 u0/u7/n7
*1671 u0/u7/n8
*1672 u0/u7/n14
*1673 u0/u7/n13
*1674 u0/u7/n22
*1675 u0/u7/U57
*1676 u0/u7/n24
*1677 u0/u7/n21
*1678 u0/u7/n56
*1679 u0/u7/U49
*1680 u0/u7/U45
*1681 u0/u7/U42
*1682 u0/u7/n23
*1683 u0/u7/U53
*1684 u0/u7/n25
*1685 u0/u7/n74
*1686 u0/u7/n76
*1687 u0/u7/n9
*1688 u0/u7/n75
*1689 u0/u7/n73
*1690 u0/u7/U9
*1691 u0/u7/n42
*1692 u0/u7/n66
*1693 u0/u7/n65
*1694 u0/u7/n64
*1695 u0/u7/n63
*1696 u0/u7/n90
*1697 u0/u7/n91
*1698 u0/u7/n93
*1699 u0/u7/n20
*1700 u0/u7/n54
*1701 u0/u7/U17
*1702 u0/u7/n53
*1703 u0/u7/n12
*1704 u0/u7/U18
*1705 u0/u7/n11
*1706 u0/u7/n27
*1707 u0/u7/n62
*1708 u0/u7/n69
*1709 u0/u7/n2
*1710 out\[27\]
*1711 U128
*1712 u0/u7/n18
*1713 u0/u7/U22
*1714 u0/u7/U19
*1715 u0/u7/n3
*1716 out\[21\]
*1717 U108
*1718 u0/u7/n1
*1719 out\[5\]
*1720 U142
*1721 u0/u7/n38
*1722 u0/u7/U12
*1723 u0/u7/n39
*1724 out\[15\]
*1725 U143
*1726 u0/u7/n4
*1727 u0/u7/n37
*1728 u0/u7/n6
*1729 u0/u7/n36
*1730 u0/u7/n72
*1731 u0/u6/n17
*1732 u0/u6/U87
*1733 u0/u6/U26
*1734 u0/u6/n19
*1735 u0/u6/U49
*1736 u0/u6/n15
*1737 u0/u6/U86
*1738 u0/u6/n8
*1739 u0/u6/U83
*1740 u0/u6/U69
*1741 u0/u6/U38
*1742 u0/u6/U29
*1743 u0/u6/n11
*1744 u0/u6/U13
*1745 u0/u6/n18
*1746 u0/u6/U54
*1747 u0/u6/U25
*1748 u0/u6/n16
*1749 u0/u6/U47
*1750 out\[7\]
*1751 U116
*1752 u0/u6/n13
*1753 u0/u6/U85
*1754 u0/u6/n14
*1755 u0/u6/U33
*1756 u0/u6/n63
*1757 u0/u6/U20
*1758 u0/u6/n65
*1759 u0/u6/U37
*1760 u0/u6/n64
*1761 u0/u6/U39
*1762 out\[32\]
*1763 U134
*1764 u0/u6/n53
*1765 u0/u6/U84
*1766 u0/u6/U19
*1767 u0/u6/n55
*1768 u0/u6/U10
*1769 u0/u6/n54
*1770 u0/u6/U7
*1771 out\[12\]
*1772 U121
*1773 u0/u6/n52
*1774 u0/u6/U11
*1775 u0/u6/n48
*1776 u0/u6/U46
*1777 u0/u6/n47
*1778 u0/u6/U12
*1779 u0/u6/n46
*1780 u0/u6/U34
*1781 u0/u6/n31
*1782 u0/u6/U82
*1783 out\[22\]
*1784 U125
*1785 u0/u6/n32
*1786 u0/u6/U27
*1787 u0/X\[40\]
*1788 u0/u6/U81
*1789 u0/u6/U80
*1790 u0/u6/U76
*1791 u0/X\[41\]
*1792 u0/u6/U77
*1793 u0/u6/U72
*1794 u0/u6/n76
*1795 u0/u6/U23
*1796 u0/u6/U22
*1797 u0/u6/U5
*1798 u0/u6/n10
*1799 u0/u6/U52
*1800 u0/u6/n59
*1801 u0/u6/n70
*1802 u0/u6/U79
*1803 u0/u6/U68
*1804 u0/u6/U67
*1805 u0/u6/U59
*1806 u0/u6/U53
*1807 u0/X\[39\]
*1808 u0/u6/U75
*1809 u0/u6/U17
*1810 u0/u6/n6
*1811 u0/u6/U78
*1812 u0/u6/U55
*1813 u0/X\[42\]
*1814 u0/u6/U74
*1815 u0/u6/n66
*1816 u0/u6/n57
*1817 u0/u6/n67
*1818 u0/u6/n77
*1819 u0/u6/U66
*1820 u0/u6/U61
*1821 u0/u6/U56
*1822 u0/u6/U51
*1823 u0/u6/n73
*1824 u0/u6/U73
*1825 u0/u6/U58
*1826 u0/u6/U57
*1827 u0/X\[37\]
*1828 u0/u6/U70
*1829 u0/u6/U18
*1830 u0/u6/n68
*1831 u0/u6/U71
*1832 u0/u6/U50
*1833 u0/X\[38\]
*1834 u0/u6/U4
*1835 u0/u6/n5
*1836 u0/u6/n71
*1837 u0/u6/U65
*1838 u0/u6/U62
*1839 u0/u6/n41
*1840 u0/u6/U48
*1841 u0/u6/U44
*1842 u0/u6/n74
*1843 u0/u6/U63
*1844 u0/u6/U60
*1845 u0/u6/n28
*1846 u0/u6/U6
*1847 u0/u6/n25
*1848 u0/u6/U40
*1849 u0/u6/U16
*1850 u0/u6/U3
*1851 u0/u6/n72
*1852 u0/u6/U64
*1853 u0/u6/n21
*1854 u0/u6/U45
*1855 u0/u6/U8
*1856 u0/u6/n78
*1857 u0/u6/U35
*1858 u0/u6/n40
*1859 u0/u6/n75
*1860 u0/u6/n20
*1861 u0/u6/U42
*1862 u0/u6/n56
*1863 u0/u6/U30
*1864 u0/u6/n50
*1865 u0/u6/U43
*1866 u0/u6/U31
*1867 u0/u6/U15
*1868 u0/u6/n24
*1869 u0/u6/n43
*1870 u0/u6/U28
*1871 u0/u6/U9
*1872 u0/u6/n62
*1873 u0/u6/U41
*1874 u0/u6/U32
*1875 u0/u6/n37
*1876 u0/u6/U21
*1877 u0/u6/n49
*1878 u0/u6/U36
*1879 u0/u6/n36
*1880 u0/u6/n45
*1881 u0/u6/U14
*1882 u0/u6/n29
*1883 u0/u6/n23
*1884 u0/u6/n44
*1885 u0/u6/n42
*1886 u0/u6/n69
*1887 u0/u6/n33
*1888 u0/u6/n51
*1889 u0/u6/n30
*1890 u0/u6/n61
*1891 u0/u6/n4
*1892 u0/u6/n2
*1893 u0/u6/n3
*1894 u0/u6/n1
*1895 u0/u6/U24
*1896 u0/u6/n22
*1897 u0/u6/n39
*1898 u0/u6/n27
*1899 u0/u6/n26
*1900 u0/u6/n79
*1901 u0/u6/n81
*1902 u0/u6/n9
*1903 u0/u6/n80
*1904 u0/u6/n34
*1905 u0/u6/n12
*1906 u0/u6/n35
*1907 u0/u6/n7
*1908 u0/u6/n38
*1909 u0/u6/n60
*1910 u0/u6/n58
*1911 u0/X\[34\]
*1912 u0/u5/U104
*1913 u0/u5/U95
*1914 u0/u5/U80
*1915 u0/u5/n17
*1916 u0/u5/U98
*1917 u0/u5/U8
*1918 u0/u5/n46
*1919 u0/u5/U103
*1920 u0/u5/U59
*1921 u0/u5/U6
*1922 u0/u5/U5
*1923 u0/u5/U4
*1924 u0/u5/U3
*1925 u0/u5/n8
*1926 u0/u5/U100
*1927 u0/u5/U45
*1928 u0/u5/n34
*1929 u0/u5/U102
*1930 u0/u5/U101
*1931 u0/u5/n31
*1932 u0/u5/U27
*1933 u0/u5/n14
*1934 u0/u5/U93
*1935 u0/u5/U46
*1936 u0/u5/U30
*1937 u0/u5/U14
*1938 u0/u5/n35
*1939 u0/u5/U41
*1940 u0/u5/n33
*1941 u0/u5/U40
*1942 u0/u5/n32
*1943 u0/u5/U94
*1944 u0/u5/U34
*1945 u0/u5/n30
*1946 u0/u5/U99
*1947 u0/u5/n7
*1948 u0/u5/U17
*1949 u0/u5/U15
*1950 u0/u5/n28
*1951 u0/u5/U90
*1952 u0/u5/U61
*1953 u0/u5/U37
*1954 u0/u5/U31
*1955 u0/u5/U7
*1956 u0/u5/n26
*1957 u0/u5/U18
*1958 u0/u5/n20
*1959 u0/u5/U28
*1960 u0/u5/n29
*1961 u0/u5/U77
*1962 u0/u5/U58
*1963 u0/u5/n27
*1964 u0/u5/U29
*1965 u0/X\[35\]
*1966 u0/u5/U96
*1967 u0/u5/n44
*1968 u0/u5/U9
*1969 u0/u5/n16
*1970 u0/u5/U97
*1971 u0/u5/n5
*1972 u0/u5/U60
*1973 u0/u5/U23
*1974 u0/u5/n12
*1975 u0/u5/n73
*1976 u0/u5/U79
*1977 u0/u5/n3
*1978 u0/u5/U19
*1979 u0/u5/n11
*1980 u0/u5/U21
*1981 u0/u5/n13
*1982 u0/u5/U24
*1983 u0/u5/n92
*1984 u0/u5/U44
*1985 u0/u5/n93
*1986 u0/u5/U51
*1987 u0/u5/n76
*1988 u0/u5/U92
*1989 u0/u5/n4
*1990 u0/u5/U20
*1991 out\[4\]
*1992 U114
*1993 u0/u5/n78
*1994 u0/u5/U36
*1995 u0/u5/n77
*1996 u0/u5/n24
*1997 u0/u5/U91
*1998 u0/u5/U10
*1999 u0/u5/n64
*2000 u0/u5/n63
*2001 out\[29\]
*2002 U130
*2003 u0/u5/n48
*2004 u0/u5/U89
*2005 u0/u5/n50
*2006 u0/u5/n53
*2007 u0/u5/U53
*2008 u0/u5/n51
*2009 u0/u5/U26
*2010 u0/u5/n54
*2011 u0/u5/U42
*2012 u0/u5/n23
*2013 u0/u5/n49
*2014 out\[11\]
*2015 U120
*2016 u0/u5/n82
*2017 u0/u5/U88
*2018 u0/u5/U78
*2019 u0/u5/U75
*2020 u0/u5/U72
*2021 u0/u5/U63
*2022 u0/X\[32\]
*2023 u0/u5/U84
*2024 u0/u5/U83
*2025 u0/u5/n97
*2026 u0/u5/U87
*2027 u0/u5/U64
*2028 u0/X\[31\]
*2029 u0/u5/U85
*2030 u0/X\[33\]
*2031 u0/u5/U86
*2032 u0/u5/U82
*2033 u0/u5/U12
*2034 u0/u5/n22
*2035 u0/u5/U16
*2036 u0/u5/U11
*2037 u0/u5/n86
*2038 u0/u5/U74
*2039 u0/u5/U73
*2040 u0/u5/U69
*2041 u0/u5/U66
*2042 u0/u5/n96
*2043 u0/u5/n85
*2044 u0/u5/U76
*2045 u0/u5/U70
*2046 u0/u5/U67
*2047 u0/u5/U62
*2048 u0/u5/n84
*2049 u0/u5/U68
*2050 u0/u5/n98
*2051 u0/u5/U81
*2052 u0/X\[36\]
*2053 u0/u5/n88
*2054 u0/u5/U13
*2055 u0/u5/n56
*2056 u0/u5/n83
*2057 u0/u5/U71
*2058 u0/u5/n62
*2059 u0/u5/U38
*2060 u0/u5/n75
*2061 u0/u5/n89
*2062 u0/u5/U65
*2063 u0/u5/n43
*2064 u0/u5/U56
*2065 u0/u5/U49
*2066 u0/u5/n39
*2067 u0/u5/U54
*2068 u0/u5/U32
*2069 u0/u5/n90
*2070 u0/u5/U55
*2071 u0/u5/n70
*2072 u0/u5/U57
*2073 u0/u5/U52
*2074 u0/u5/n42
*2075 u0/u5/U43
*2076 u0/u5/U35
*2077 u0/u5/n87
*2078 u0/u5/n59
*2079 u0/u5/U50
*2080 u0/u5/U39
*2081 u0/u5/n71
*2082 u0/u5/U47
*2083 u0/u5/n45
*2084 u0/u5/U33
*2085 u0/u5/n47
*2086 u0/u5/n69
*2087 u0/u5/U48
*2088 u0/u5/n37
*2089 u0/u5/n61
*2090 u0/u5/n36
*2091 u0/u5/n38
*2092 u0/u5/n74
*2093 u0/u5/n21
*2094 u0/u5/n19
*2095 u0/u5/n9
*2096 u0/u5/n52
*2097 u0/u5/n15
*2098 u0/u5/n41