*SPEF "1481-1998"
*DESIGN "des"
*DATE "Tue May  6 09:24:43 2025"
*VENDOR "Synopsys, Inc."
*PROGRAM "icc_shell"
*VERSION "W-2024.09-SP2"
*DESIGN_FLOW "PIN_CAP NONE"
*DIVIDER /
*DELIMITER :
*BUS_DELIMITER [ ]
*T_UNIT 1 NS
*C_UNIT 1 FF
*R_UNIT 1 OHM
*L_UNIT 1 HENRY

*NAME_MAP
*1 data_i[4]
*2 data_i[3]
*3 data_i[2]
*4 data_i[1]
*5 data_i[0]
*6 VDD
*7 VSS
*8 data_i[12]
*9 data_i[11]
*10 data_i[10]
*11 data_i[9]
*12 data_i[8]
*13 data_i[7]
*14 data_i[6]
*15 data_i[5]
*16 data_i[20]
*17 data_i[19]
*18 data_i[18]
*19 data_i[17]
*20 data_i[16]
*21 data_i[15]
*22 data_i[14]
*23 data_i[13]
*24 data_i[28]
*25 data_i[27]
*26 data_i[26]
*27 data_i[25]
*28 data_i[24]
*29 data_i[23]
*30 data_i[22]
*31 data_i[21]
*32 data_i[36]
*33 data_i[35]
*34 data_i[34]
*35 data_i[33]
*36 data_i[32]
*37 data_i[31]
*38 data_i[30]
*39 data_i[29]
*40 data_i[44]
*41 data_i[43]
*42 data_i[42]
*43 data_i[41]
*44 data_i[40]
*45 data_i[39]
*46 data_i[38]
*47 data_i[37]
*48 data_i[52]
*49 data_i[51]
*50 data_i[50]
*51 data_i[49]
*52 data_i[48]
*53 data_i[47]
*54 data_i[46]
*55 data_i[45]
*56 data_i[60]
*57 data_i[59]
*58 data_i[58]
*59 data_i[57]
*60 data_i[56]
*61 data_i[55]
*62 data_i[54]
*63 data_i[53]
*64 key_i[4]
*65 key_i[3]
*66 key_i[2]
*67 key_i[1]
*68 key_i[0]
*69 data_i[63]
*70 data_i[62]
*71 data_i[61]
*72 key_i[12]
*73 key_i[11]
*74 key_i[10]
*75 key_i[9]
*76 key_i[8]
*77 key_i[7]
*78 key_i[6]
*79 key_i[5]
*80 key_i[20]
*81 key_i[19]
*82 key_i[18]
*83 key_i[17]
*84 key_i[16]
*85 key_i[15]
*86 key_i[14]
*87 key_i[13]
*88 key_i[28]
*89 key_i[27]
*90 key_i[26]
*91 key_i[25]
*92 key_i[24]
*93 key_i[23]
*94 key_i[22]
*95 key_i[21]
*96 key_i[36]
*97 key_i[35]
*98 key_i[34]
*99 key_i[33]
*100 key_i[32]
*101 key_i[31]
*102 key_i[30]
*103 key_i[29]
*104 key_i[44]
*105 key_i[43]
*106 key_i[42]
*107 key_i[41]
*108 key_i[40]
*109 key_i[39]
*110 key_i[38]
*111 key_i[37]
*112 key_i[52]
*113 key_i[51]
*114 key_i[50]
*115 key_i[49]
*116 key_i[48]
*117 key_i[47]
*118 key_i[46]
*119 key_i[45]
*120 key_i[60]
*121 key_i[59]
*122 key_i[58]
*123 key_i[57]
*124 key_i[56]
*125 key_i[55]
*126 key_i[54]
*127 key_i[53]
*128 data_o[4]
*129 data_o[3]
*130 data_o[2]
*131 data_o[1]
*132 data_o[0]
*133 key_i[63]
*134 key_i[62]
*135 key_i[61]
*136 data_o[12]
*137 data_o[11]
*138 data_o[10]
*139 data_o[9]
*140 data_o[8]
*141 data_o[7]
*142 data_o[6]
*143 data_o[5]
*144 data_o[20]
*145 data_o[19]
*146 data_o[18]
*147 data_o[17]
*148 data_o[16]
*149 data_o[15]
*150 data_o[14]
*151 data_o[13]
*152 data_o[28]
*153 data_o[27]
*154 data_o[26]
*155 data_o[25]
*156 data_o[24]
*157 data_o[23]
*158 data_o[22]
*159 data_o[21]
*160 data_o[36]
*161 data_o[35]
*162 data_o[34]
*163 data_o[33]
*164 data_o[32]
*165 data_o[31]
*166 data_o[30]
*167 data_o[29]
*168 data_o[44]
*169 data_o[43]
*170 data_o[42]
*171 data_o[41]
*172 data_o[40]
*173 data_o[39]
*174 data_o[38]
*175 data_o[37]
*176 data_o[52]
*177 data_o[51]
*178 data_o[50]
*179 data_o[49]
*180 data_o[48]
*181 data_o[47]
*182 data_o[46]
*183 data_o[45]
*184 data_o[60]
*185 data_o[59]
*186 data_o[58]
*187 data_o[57]
*188 data_o[56]
*189 data_o[55]
*190 data_o[54]
*191 data_o[53]
*192 ready_o
*193 decrypt_i
*194 load_i
*195 reset
*196 clk
*197 data_o[63]
*198 data_o[62]
*199 data_o[61]
*200 sbox8/n38
*201 sbox8/U95
*202 sbox8/U90
*203 sbox8/U77
*204 sbox8/U35
*205 sbox8/U23
*206 sbox8/n43
*207 sbox8/U87
*208 sbox8/U79
*209 sbox8/U40
*210 sbox8/U20
*211 sbox8/U16
*212 sbox8/n56
*213 sbox8/U52
*214 sbox8/U42
*215 sbox8/U34
*216 sbox8/n58
*217 sbox8/U32
*218 sbox8/n55
*219 sbox8/U94
*220 sbox8/n57
*221 sbox8/U19
*222 sbox8/n12
*223 sbox8/U8
*224 sbox8/n44
*225 sbox8/U24
*226 sbox8/U11
*227 sbox8/n54
*228 sbox8/U26
*229 sbox8/n53
*230 sbox8/U48
*231 sbox8/U21
*232 sbox8/n47
*233 sbox8/U93
*234 sbox8/U29
*235 sbox8/n49
*236 sbox8/U7
*237 sbox8/n48
*238 sbox8/U76
*239 sbox8/U30
*240 s8_stag1_o\[1\]
*241 rd1/U93
*242 sbox8/n34
*243 sbox8/U75
*244 sbox8/U28
*245 s8_stag1_i\[0\]
*246 sbox8/U92
*247 sbox8/U88
*248 sbox8/U68
*249 rd1/U68
*250 s8_stag1_i\[1\]
*251 sbox8/U91
*252 sbox8/U89
*253 rd1/U66
*254 sbox8/n27
*255 sbox8/U3
*256 sbox8/U4
*257 sbox8/U12
*258 sbox8/U1
*259 sbox8/n11
*260 sbox8/n31
*261 sbox8/U81
*262 sbox8/U47
*263 sbox8/U37
*264 sbox8/n10
*265 sbox8/n6
*266 sbox8/U82
*267 sbox8/n9
*268 sbox8/n32
*269 sbox8/U86
*270 sbox8/n7
*271 sbox8/U85
*272 sbox8/n89
*273 sbox8/U5
*274 sbox8/n69
*275 sbox8/n70
*276 sbox8/U22
*277 sbox8/n71
*278 sbox8/U17
*279 sbox8/n1
*280 sbox8/n87
*281 sbox8/U78
*282 sbox8/U45
*283 sbox8/U39
*284 sbox8/n85
*285 sbox8/U80
*286 sbox8/n86
*287 sbox8/U15
*288 sbox8/n14
*289 sbox8/n30
*290 sbox8/U63
*291 sbox8/U54
*292 sbox8/n29
*293 sbox8/U59
*294 sbox8/U41
*295 sbox8/n28
*296 sbox8/n67
*297 sbox8/n60
*298 sbox8/U55
*299 sbox8/n33
*300 sbox8/U38
*301 sbox8/n68
*302 s8_stag1_o\[0\]
*303 rd1/U77
*304 sbox8/n36
*305 sbox8/n35
*306 s8_stag1_o\[2\]
*307 rd1/U75
*308 sbox8/n83
*309 sbox8/U74
*310 sbox8/U62
*311 sbox8/U61
*312 sbox8/U51
*313 s8_stag1_i\[5\]
*314 sbox8/U72
*315 sbox8/U65
*316 rd1/U13
*317 s8_stag1_i\[4\]
*318 sbox8/U69
*319 sbox8/U13
*320 rd1/U49
*321 sbox8/n79
*322 sbox8/U73
*323 sbox8/U56
*324 sbox8/U53
*325 sbox8/U49
*326 s8_stag1_i\[3\]
*327 sbox8/U70
*328 sbox8/U66
*329 rd1/U47
*330 s8_stag1_i\[2\]
*331 sbox8/U71
*332 sbox8/U67
*333 rd1/U59
*334 sbox8/n73
*335 sbox8/U50
*336 sbox8/n3
*337 sbox8/U10
*338 sbox8/n74
*339 sbox8/U60
*340 sbox8/n4
*341 sbox8/U46
*342 sbox8/n66
*343 sbox8/U64
*344 sbox8/U58
*345 sbox8/n5
*346 sbox8/n65
*347 sbox8/U57
*348 sbox8/n2
*349 sbox8/n81
*350 sbox8/n78
*351 sbox8/n82
*352 sbox8/U18
*353 sbox8/n23
*354 sbox8/U31
*355 sbox8/U9
*356 sbox8/n80
*357 sbox8/U36
*358 sbox8/n20
*359 sbox8/U44
*360 sbox8/U33
*361 sbox8/n59
*362 sbox8/n84
*363 sbox8/n22
*364 sbox8/n46
*365 sbox8/n21
*366 sbox8/U25
*367 sbox8/n39
*368 sbox8/U27
*369 sbox8/U6
*370 sbox8/n37
*371 sbox8/n26
*372 sbox8/n24
*373 sbox8/n18
*374 sbox8/U43
*375 sbox8/n8
*376 sbox8/U14
*377 sbox8/n15
*378 sbox8/n16
*379 sbox8/n19
*380 sbox8/n17
*381 sbox8/n50
*382 sbox8/n64
*383 sbox8/n62
*384 sbox8/n25
*385 sbox8/n77
*386 sbox8/n72
*387 sbox8/n76
*388 sbox8/n75
*389 sbox8/n52
*390 sbox8/n41
*391 sbox8/n63
*392 sbox8/n42
*393 sbox8/n40
*394 sbox8/n61
*395 sbox8/n45
*396 sbox8/n13
*397 s8_stag1_o\[3\]
*398 rd1/U82
*399 sbox8/n51
*400 sbox7/n11
*401 sbox7/U91
*402 sbox7/U90
*403 sbox7/U87
*404 s7_stag1_i\[0\]
*405 sbox7/U81
*406 sbox7/U78
*407 rd1/U90
*408 sbox7/n28
*409 sbox7/U86
*410 sbox7/U70
*411 sbox7/U69
*412 sbox7/U64
*413 sbox7/U62
*414 sbox7/U59
*415 sbox7/U25
*416 sbox7/n12
*417 sbox7/U83
*418 sbox7/n22
*419 sbox7/U72
*420 sbox7/U68
*421 sbox7/n55
*422 sbox7/U89
*423 sbox7/U71
*424 sbox7/U30
*425 sbox7/U27
*426 sbox7/n82
*427 sbox7/U65
*428 sbox7/n61
*429 sbox7/U33
*430 sbox7/n62
*431 sbox7/U23
*432 sbox7/U10
*433 sbox7/n60
*434 sbox7/n43
*435 sbox7/U15
*436 sbox7/U6
*437 sbox7/U5
*438 sbox7/n20
*439 sbox7/U88
*440 sbox7/U75
*441 sbox7/n84
*442 sbox7/U67
*443 sbox7/U26
*444 sbox7/n23
*445 sbox7/U39
*446 sbox7/U7
*447 sbox7/n85
*448 sbox7/U76
*449 sbox7/U60
*450 sbox7/U3
*451 sbox7/n21
*452 sbox7/U35
*453 sbox7/U19
*454 s7_stag1_i\[1\]
*455 rd1/U91
*456 sbox7/n44
*457 sbox7/U77
*458 sbox7/U24
*459 sbox7/n50
*460 sbox7/U85
*461 sbox7/U82
*462 sbox7/n8
*463 sbox7/U66
*464 sbox7/n32
*465 sbox7/U84
*466 sbox7/U63
*467 sbox7/n34
*468 sbox7/U20
*469 sbox7/n33
*470 s7_stag1_o\[2\]
*471 rd1/U88
*472 sbox7/n31
*473 sbox7/U80
*474 sbox7/U79
*475 sbox7/n48
*476 sbox7/n51
*477 sbox7/n18
*478 sbox7/U74
*479 sbox7/n49
*480 sbox7/U14
*481 sbox7/n52
*482 sbox7/U16
*483 sbox7/n14
*484 sbox7/U61
*485 sbox7/n68
*486 sbox7/n67
*487 s7_stag1_o\[0\]
*488 rd1/U89
*489 sbox7/n30
*490 sbox7/n79
*491 sbox7/n80
*492 sbox7/U29
*493 sbox7/n78
*494 sbox7/U28
*495 sbox7/n9
*496 sbox7/n10
*497 sbox7/U21
*498 sbox7/n16
*499 sbox7/n19
*500 sbox7/U13
*501 sbox7/n17
*502 sbox7/U12
*503 sbox7/n6
*504 sbox7/n45
*505 sbox7/U73
*506 sbox7/U17
*507 sbox7/U9
*508 sbox7/n7
*509 sbox7/n35
*510 sbox7/n59
*511 sbox7/U38
*512 sbox7/n42
*513 sbox7/U37
*514 sbox7/U22
*515 sbox7/U18
*516 sbox7/n13
*517 sbox7/n81
*518 sbox7/U11
*519 sbox7/n58
*520 sbox7/U42
*521 sbox7/U8
*522 sbox7/n83
*523 sbox7/n47
*524 sbox7/n41
*525 s7_stag1_o\[1\]
*526 rd1/U76
*527 sbox7/n15
*528 sbox7/n29
*529 sbox7/U48
*530 sbox7/U4
*531 s7_stag1_o\[3\]
*532 rd1/U74
*533 sbox7/n27
*534 sbox7/n46
*535 sbox7/U44
*536 sbox7/n74
*537 sbox7/U58
*538 sbox7/U46
*539 sbox7/U41
*540 sbox7/U34
*541 s7_stag1_i\[2\]
*542 sbox7/U54
*543 sbox7/U52
*544 rd1/U45
*545 s7_stag1_i\[3\]
*546 sbox7/U56
*547 sbox7/U50
*548 rd1/U51
*549 sbox7/n75
*550 sbox7/U57
*551 sbox7/U47
*552 s7_stag1_i\[4\]
*553 sbox7/U55
*554 sbox7/U49
*555 rd1/U46
*556 s7_stag1_i\[5\]
*557 sbox7/U53
*558 sbox7/U51
*559 rd1/U54
*560 sbox7/n72
*561 sbox7/U36
*562 sbox7/n5
*563 sbox7/U32
*564 sbox7/n76
*565 sbox7/U40
*566 sbox7/n2
*567 sbox7/U31
*568 sbox7/n77
*569 sbox7/U43
*570 sbox7/n4
*571 sbox7/n73
*572 sbox7/U45
*573 sbox7/n3
*574 sbox7/n24
*575 sbox7/n64
*576 sbox7/n39
*577 sbox7/n65
*578 sbox7/n40
*579 sbox7/n63
*580 sbox7/n57
*581 sbox7/n56
*582 sbox7/n25
*583 sbox7/n26
*584 sbox7/n71
*585 sbox7/n69
*586 sbox7/n70
*587 sbox7/n37
*588 sbox7/n38
*589 sbox7/n36
*590 sbox7/n53
*591 sbox7/n54
*592 sbox7/n1
*593 sbox7/n66
*594 sbox6/n64
*595 sbox6/U96
*596 sbox6/U78
*597 sbox6/n15
*598 sbox6/U95
*599 sbox6/U94
*600 sbox6/U93
*601 sbox6/U80
*602 sbox6/U24
*603 sbox6/U19
*604 sbox6/U1
*605 sbox6/n65
*606 sbox6/U38
*607 sbox6/n66
*608 sbox6/U36
*609 sbox6/n67
*610 sbox6/U92
*611 sbox6/n21
*612 sbox6/U81
*613 sbox6/U76
*614 sbox6/n7
*615 sbox6/U90
*616 sbox6/U16
*617 sbox6/n44
*618 sbox6/U91
*619 sbox6/U27
*620 sbox6/n76
*621 sbox6/U35
*622 sbox6/n74
*623 sbox6/U33
*624 sbox6/n17
*625 sbox6/U77
*626 sbox6/U40
*627 sbox6/U18
*628 sbox6/U12
*629 sbox6/U5
*630 sbox6/n33
*631 sbox6/U34
*632 sbox6/U2
*633 sbox6/n75
*634 sbox6/U84
*635 sbox6/n58
*636 sbox6/U32
*637 sbox6/n62
*638 sbox6/U50
*639 sbox6/n30
*640 sbox6/U41
*641 sbox6/n89
*642 sbox6/U3
*643 sbox6/n61
*644 sbox6/U22
*645 sbox6/n11
*646 sbox6/U23
*647 sbox6/n68
*648 sbox6/U17
*649 sbox6/n59
*650 sbox6/U42
*651 sbox6/n60
*652 sbox6/U43
*653 sbox6/n57
*654 sbox6/n46
*655 sbox6/U79
*656 sbox6/n84
*657 s6_stag1_i\[0\]
*658 sbox6/U89
*659 sbox6/U75
*660 sbox6/U4
*661 rd1/U30
*662 sbox6/n19
*663 sbox6/U88
*664 sbox6/U46
*665 s6_stag1_i\[1\]
*666 sbox6/U6
*667 rd1/U63
*668 sbox6/n28
*669 sbox6/U85
*670 sbox6/U64
*671 sbox6/U49
*672 sbox6/n83
*673 sbox6/U86
*674 sbox6/U44
*675 sbox6/n5
*676 sbox6/U83
*677 sbox6/n27
*678 sbox6/U82
*679 sbox6/n29
*680 sbox6/n70
*681 sbox6/U31
*682 sbox6/n38
*683 sbox6/U51
*684 sbox6/U11
*685 sbox6/n49
*686 sbox6/n9
*687 sbox6/U14
*688 sbox6/U8
*689 sbox6/n26
*690 sbox6/n24
*691 sbox6/n23
*692 sbox6/n25
*693 sbox6/n22
*694 s6_stag1_o\[3\]
*695 rd1/U83
*696 sbox6/n20
*697 sbox6/n41
*698 sbox6/U28
*699 sbox6/U9
*700 sbox6/n45
*701 sbox6/n47
*702 s6_stag1_o\[1\]
*703 rd1/U79
*704 sbox6/n56
*705 sbox6/n31
*706 s6_stag1_o\[0\]
*707 rd1/U15
*708 sbox6/n32
*709 sbox6/n34
*710 sbox6/U37
*711 sbox6/n35
*712 sbox6/n36
*713 s6_stag1_o\[2\]
*714 rd1/U14
*715 sbox6/n18
*716 sbox6/n85
*717 sbox6/U74
*718 sbox6/U61
*719 sbox6/U60
*720 sbox6/U54
*721 sbox6/U53
*722 s6_stag1_i\[5\]
*723 sbox6/U72
*724 sbox6/U68
*725 rd1/U38
*726 s6_stag1_i\[4\]
*727 sbox6/U71
*728 sbox6/U67
*729 rd1/U52
*730 sbox6/n77
*731 sbox6/U73
*732 sbox6/U62
*733 sbox6/U58
*734 sbox6/U55
*735 s6_stag1_i\[3\]
*736 sbox6/U70
*737 sbox6/U66
*738 rd1/U36
*739 s6_stag1_i\[2\]
*740 sbox6/U69
*741 sbox6/U65
*742 rd1/U35
*743 sbox6/n78
*744 sbox6/U56
*745 sbox6/U52
*746 sbox6/n12
*747 sbox6/U48
*748 sbox6/n79
*749 sbox6/U63
*750 sbox6/n10
*751 sbox6/n86
*752 sbox6/U59
*753 sbox6/n14
*754 sbox6/U47
*755 sbox6/n80
*756 sbox6/U57
*757 sbox6/n13
*758 sbox6/n37
*759 sbox6/U29
*760 sbox6/n82
*761 sbox6/n71
*762 sbox6/U30
*763 sbox6/n81
*764 sbox6/n42
*765 sbox6/U45
*766 sbox6/n72
*767 sbox6/n63
*768 sbox6/U15
*769 sbox6/n53
*770 sbox6/U26
*771 sbox6/U13
*772 sbox6/n52
*773 sbox6/n54
*774 sbox6/n69
*775 sbox6/U21
*776 sbox6/n39
*777 sbox6/U20
*778 sbox6/n43
*779 sbox6/U25
*780 sbox6/n55
*781 sbox6/n3
*782 sbox6/U7
*783 sbox6/n16
*784 sbox6/n6
*785 sbox6/n51
*786 sbox6/n73
*787 sbox6/n40
*788 sbox6/n88
*789 sbox6/n4
*790 sbox6/n2
*791 sbox6/n8
*792 sbox6/n1
*793 sbox6/n87
*794 sbox6/n50
*795 sbox6/n48
*796 s5_stag1_i\[1\]
*797 sbox5/U91
*798 sbox5/U85
*799 sbox5/U82
*800 rd1/U70
*801 s5_stag1_i\[0\]
*802 sbox5/U90
*803 sbox5/U86
*804 rd1/U4
*805 sbox5/n56
*806 sbox5/U78
*807 sbox5/U71
*808 sbox5/U65
*809 sbox5/U39
*810 sbox5/U35
*811 sbox5/U13
*812 sbox5/n12
*813 sbox5/U81
*814 sbox5/n40
*815 sbox5/U53
*816 sbox5/U15
*817 sbox5/U11
*818 sbox5/U4
*819 sbox5/n33
*820 sbox5/U89
*821 sbox5/U48
*822 sbox5/U36
*823 sbox5/U28
*824 sbox5/U22
*825 sbox5/n84
*826 sbox5/U80
*827 sbox5/U73
*828 sbox5/U24
*829 sbox5/U21
*830 sbox5/U17
*831 sbox5/n8
*832 sbox5/U74
*833 sbox5/U18
*834 sbox5/U5
*835 sbox5/U3
*836 sbox5/n61
*837 sbox5/U88
*838 sbox5/n60
*839 sbox5/U87
*840 sbox5/n39
*841 sbox5/U49
*842 sbox5/U40
*843 sbox5/U8
*844 sbox5/n63
*845 sbox5/U20
*846 sbox5/n20
*847 sbox5/U26
*848 sbox5/n4
*849 sbox5/U19
*850 sbox5/n11
*851 sbox5/U10
*852 sbox5/U7
*853 sbox5/n23
*854 sbox5/U72
*855 sbox5/U70
*856 sbox5/U69
*857 sbox5/n62
*858 sbox5/n15
*859 sbox5/U68
*860 sbox5/n59
*861 s5_stag1_o\[1\]
*862 rd1/U92
*863 sbox5/n58
*864 sbox5/U76
*865 sbox5/n14
*866 sbox5/n55
*867 sbox5/U84
*868 sbox5/n9
*869 sbox5/U83
*870 sbox5/U12
*871 sbox5/n85
*872 sbox5/U66
*873 sbox5/n36
*874 sbox5/U79
*875 sbox5/n83
*876 sbox5/n38
*877 sbox5/n78
*878 sbox5/U77
*879 sbox5/n42
*880 sbox5/U75
*881 sbox5/n79
*882 sbox5/n80
*883 sbox5/n68
*884 sbox5/n67
*885 s5_stag1_o\[0\]
*886 rd1/U85
*887 sbox5/n43
*888 sbox5/U67
*889 sbox5/n45
*890 sbox5/U34
*891 sbox5/n44
*892 s5_stag1_o\[2\]
*893 rd1/U72
*894 sbox5/n34
*895 sbox5/U45
*896 sbox5/n10
*897 sbox5/U6
*898 sbox5/n49
*899 sbox5/n64
*900 sbox5/n27
*901 sbox5/U46
*902 sbox5/U31
*903 sbox5/n50
*904 sbox5/U44
*905 sbox5/U23
*906 sbox5/n52
*907 sbox5/U51
*908 sbox5/U30
*909 sbox5/n53
*910 sbox5/n13
*911 sbox5/n81
*912 sbox5/U41
*913 sbox5/n82
*914 sbox5/n22
*915 sbox5/U32
*916 sbox5/n26
*917 sbox5/n24
*918 sbox5/U33
*919 sbox5/n21
*920 sbox5/n25
*921 sbox5/n16
*922 sbox5/n18
*923 sbox5/n17
*924 s5_stag1_o\[3\]
*925 rd1/U80
*926 sbox5/n1
*927 sbox5/U25
*928 sbox5/n51
*929 sbox5/U9
*930 sbox5/n69
*931 sbox5/n70
*932 sbox5/n30
*933 sbox5/U42
*934 sbox5/n75
*935 sbox5/U64
*936 sbox5/U54
*937 sbox5/U47
*938 s5_stag1_i\[2\]
*939 sbox5/U60
*940 sbox5/U57
*941 rd1/U53
*942 sbox5/n6
*943 sbox5/U59
*944 sbox5/U37
*945 sbox5/n73
*946 sbox5/U63
*947 sbox5/U56
*948 sbox5/U55
*949 sbox5/U52
*950 s5_stag1_i\[4\]
*951 sbox5/U61
*952 sbox5/U58
*953 rd1/U55
*954 sbox5/n3
*955 sbox5/U38
*956 sbox5/U16
*957 sbox5/n72
*958 sbox5/U62
*959 sbox5/U50
*960 s5_stag1_i\[3\]
*961 rd1/U39
*962 sbox5/n7
*963 sbox5/n66
*964 sbox5/U43
*965 s5_stag1_i\[5\]
*966 sbox5/U14
*967 rd1/U41
*968 sbox5/n65
*969 sbox5/n5
*970 sbox5/n77
*971 sbox5/U29
*972 sbox5/n37
*973 sbox5/n57
*974 sbox5/n74
*975 sbox5/n35
*976 sbox5/n32
*977 sbox5/U27
*978 sbox5/n41
*979 sbox5/n71
*980 sbox5/n31
*981 sbox5/n28
*982 sbox5/n76
*983 sbox5/n29
*984 sbox5/n46
*985 sbox5/n48
*986 sbox5/n47
*987 sbox5/n19
*988 sbox5/n2
*989 sbox5/n54
*990 sbox4/n13
*991 sbox4/U91
*992 sbox4/U35
*993 sbox4/U23
*994 sbox4/U22
*995 sbox4/n5
*996 sbox4/U25
*997 sbox4/U10
*998 sbox4/n69
*999 sbox4/U90
*1000 sbox4/n71
*1001 sbox4/U46
*1002 sbox4/n70
*1003 sbox4/U21
*1004 s4_stag1_o\[0\]
*1005 rd1/U5
*1006 sbox4/n18
*1007 sbox4/U87
*1008 sbox4/n54
*1009 sbox4/U89
*1010 sbox4/U3
*1011 sbox4/n56
*1012 sbox4/U14
*1013 sbox4/n55
*1014 sbox4/U53
*1015 s4_stag1_o\[1\]
*1016 rd1/U11
*1017 sbox4/n53
*1018 sbox4/U6
*1019 sbox4/n19
*1020 sbox4/U88
*1021 sbox4/U72
*1022 sbox4/n42
*1023 sbox4/U31
*1024 sbox4/n41
*1025 sbox4/U4
*1026 s4_stag1_o\[2\]
*1027 rd1/U7
*1028 sbox4/n40
*1029 sbox4/U27
*1030 sbox4/n21
*1031 sbox4/n20
*1032 sbox4/U5
*1033 s4_stag1_o\[3\]
*1034 rd1/U8
*1035 s4_stag1_i\[0\]
*1036 sbox4/U86
*1037 sbox4/U85
*1038 sbox4/U74
*1039 rd1/U3
*1040 s4_stag1_i\[1\]
*1041 sbox4/U9
*1042 sbox4/U8
*1043 rd1/U28
*1044 sbox4/n72
*1045 sbox4/U69
*1046 sbox4/U56
*1047 sbox4/U50
*1048 sbox4/n15
*1049 sbox4/U55
*1050 sbox4/n38
*1051 sbox4/U7
*1052 sbox4/n68
*1053 sbox4/U84
*1054 sbox4/U68
*1055 sbox4/U64
*1056 sbox4/U60
*1057 sbox4/U58
*1058 s4_stag1_i\[5\]
*1059 sbox4/U79
*1060 sbox4/U76
*1061 rd1/U40
*1062 s4_stag1_i\[4\]
*1063 sbox4/U80
*1064 sbox4/U75
*1065 rd1/U60
*1066 sbox4/n67
*1067 sbox4/U83
*1068 sbox4/U71
*1069 sbox4/U66
*1070 sbox4/U57
*1071 s4_stag1_i\[3\]
*1072 sbox4/U81
*1073 sbox4/U78
*1074 rd1/U48
*1075 s4_stag1_i\[2\]
*1076 sbox4/U82
*1077 sbox4/U77
*1078 rd1/U61
*1079 sbox4/n82
*1080 sbox4/U73
*1081 sbox4/U65
*1082 sbox4/U63
*1083 sbox4/n8
*1084 sbox4/U52
*1085 sbox4/n78
*1086 sbox4/U70
*1087 sbox4/U61
*1088 sbox4/U59
*1089 sbox4/n9
*1090 sbox4/n80
*1091 sbox4/U67
*1092 sbox4/n6
*1093 sbox4/U51
*1094 sbox4/n83
*1095 sbox4/U62
*1096 sbox4/n7
*1097 sbox4/n17
*1098 sbox4/n63
*1099 sbox4/U28
*1100 sbox4/U24
*1101 sbox4/n36
*1102 sbox4/U54
*1103 sbox4/n49
*1104 sbox4/U34
*1105 sbox4/U20
*1106 sbox4/n50
*1107 sbox4/U16
*1108 sbox4/n31
*1109 sbox4/U44
*1110 sbox4/n52
*1111 sbox4/U13
*1112 sbox4/n77
*1113 sbox4/U39
*1114 sbox4/n79
*1115 sbox4/U43
*1116 sbox4/n62
*1117 sbox4/U42
*1118 sbox4/n46
*1119 sbox4/U33
*1120 sbox4/U18
*1121 sbox4/n81
*1122 sbox4/n84
*1123 sbox4/U17
*1124 sbox4/n51
*1125 sbox4/U19
*1126 sbox4/n34
*1127 sbox4/U36
*1128 sbox4/n35
*1129 sbox4/U45
*1130 sbox4/n33
*1131 sbox4/U26
*1132 sbox4/n47
*1133 sbox4/U48
*1134 sbox4/U41
*1135 sbox4/n48
*1136 sbox4/n39
*1137 sbox4/U32
*1138 sbox4/n30
*1139 sbox4/n26
*1140 sbox4/U47
*1141 sbox4/U37
*1142 sbox4/U15
*1143 sbox4/n12
*1144 sbox4/n65
*1145 sbox4/U12
*1146 sbox4/n64
*1147 sbox4/n11
*1148 sbox4/n16
*1149 sbox4/U40
*1150 sbox4/n61
*1151 sbox4/U49
*1152 sbox4/U29
*1153 sbox4/n2
*1154 sbox4/n74
*1155 sbox4/n73
*1156 sbox4/n75
*1157 sbox4/n57
*1158 sbox4/n66
*1159 sbox4/n27
*1160 sbox4/n76
*1161 sbox4/n59
*1162 sbox4/n32
*1163 sbox4/n4
*1164 sbox4/n29
*1165 sbox4/U38
*1166 sbox4/n23
*1167 sbox4/U11
*1168 sbox4/n3
*1169 sbox4/n25
*1170 sbox4/n28
*1171 sbox4/U30
*1172 sbox4/n24
*1173 sbox4/n22
*1174 sbox4/n37
*1175 sbox4/n43
*1176 sbox4/n45
*1177 sbox4/n1
*1178 sbox4/n44
*1179 sbox4/n10
*1180 sbox4/n60
*1181 sbox4/n58
*1182 sbox4/n85
*1183 sbox4/n14
*1184 s3_stag1_i\[0\]
*1185 sbox3/U93
*1186 sbox3/U68
*1187 sbox3/U67
*1188 rd1/U29
*1189 sbox3/n15
*1190 sbox3/U92
*1191 sbox3/U91
*1192 sbox3/n13
*1193 sbox3/U66
*1194 sbox3/n38
*1195 sbox3/U51
*1196 sbox3/U32
*1197 sbox3/U20
*1198 sbox3/U19
*1199 sbox3/U7
*1200 s3_stag1_i\[1\]
*1201 rd1/U62
*1202 sbox3/n20
*1203 sbox3/U90
*1204 sbox3/U89
*1205 sbox3/U55
*1206 sbox3/n87
*1207 sbox3/U82
*1208 sbox3/U46
*1209 sbox3/U28
*1210 sbox3/n86
*1211 sbox3/U64
*1212 sbox3/U62
*1213 sbox3/U48
*1214 s3_stag1_i\[4\]
*1215 sbox3/U88
*1216 sbox3/U11
*1217 sbox3/U10
*1218 rd1/U33
*1219 sbox3/n5
*1220 sbox3/U87
*1221 sbox3/U9
*1222 sbox3/n63
*1223 sbox3/U80
*1224 sbox3/U79
*1225 sbox3/U78
*1226 sbox3/U8
*1227 sbox3/U5
*1228 sbox3/U3
*1229 sbox3/n4
*1230 sbox3/U86
*1231 s3_stag1_i\[5\]
*1232 rd1/U32
*1233 s3_stag1_i\[3\]
*1234 sbox3/U85
*1235 sbox3/U14
*1236 sbox3/U12
*1237 rd1/U34
*1238 sbox3/n6
*1239 sbox3/U84
*1240 sbox3/U13
*1241 sbox3/n64
*1242 sbox3/U77
*1243 sbox3/U76
*1244 sbox3/U75
*1245 sbox3/n7
*1246 sbox3/U83
*1247 s3_stag1_i\[2\]
*1248 rd1/U31
*1249 sbox3/n23
*1250 sbox3/U63
*1251 sbox3/U6
*1252 sbox3/n21
*1253 sbox3/U74
*1254 sbox3/U50
*1255 sbox3/U43
*1256 sbox3/U40
*1257 sbox3/U21
*1258 sbox3/n1
*1259 sbox3/U17
*1260 sbox3/n19
*1261 sbox3/U81
*1262 sbox3/n22
*1263 sbox3/U71
*1264 sbox3/n17
*1265 sbox3/U61
*1266 sbox3/n18
*1267 sbox3/U39
*1268 s3_stag1_o\[3\]
*1269 rd1/U71
*1270 sbox3/n16
*1271 sbox3/U69
*1272 sbox3/n81
*1273 sbox3/U59
*1274 sbox3/U58
*1275 sbox3/U56
*1276 sbox3/n41
*1277 sbox3/U44
*1278 sbox3/U4
*1279 sbox3/n78
*1280 sbox3/U57
*1281 sbox3/U53
*1282 sbox3/U52
*1283 sbox3/n46
*1284 sbox3/U37
*1285 sbox3/U25
*1286 sbox3/n77
*1287 sbox3/U65
*1288 sbox3/U60
*1289 sbox3/n69
*1290 sbox3/U31
*1291 sbox3/U23
*1292 sbox3/n80
*1293 sbox3/n47
*1294 sbox3/U36
*1295 sbox3/n79
*1296 sbox3/n82
*1297 sbox3/n48
*1298 sbox3/U49
*1299 sbox3/U15
*1300 sbox3/n71
*1301 sbox3/U73
*1302 sbox3/n51
*1303 sbox3/U54
*1304 sbox3/n31
*1305 sbox3/U24
*1306 sbox3/n70
*1307 sbox3/n72
*1308 sbox3/U35
*1309 s3_stag1_o\[0\]
*1310 rd1/U81
*1311 sbox3/n39
*1312 sbox3/n34
*1313 sbox3/U72
*1314 sbox3/U22
*1315 sbox3/n36
*1316 sbox3/n35
*1317 s3_stag1_o\[2\]
*1318 rd1/U78
*1319 sbox3/n33
*1320 sbox3/n30
*1321 sbox3/n52
*1322 sbox3/U70
*1323 sbox3/n53
*1324 sbox3/n55
*1325 sbox3/U33
*1326 sbox3/n54
*1327 sbox3/U41
*1328 s3_stag1_o\[1\]
*1329 rd1/U16
*1330 sbox3/n32
*1331 sbox3/n9
*1332 sbox3/U26
*1333 sbox3/n45
*1334 sbox3/U47
*1335 sbox3/n61
*1336 sbox3/n85
*1337 sbox3/n29
*1338 sbox3/n84
*1339 sbox3/n11
*1340 sbox3/U30
*1341 sbox3/U29
*1342 sbox3/n66
*1343 sbox3/U34
*1344 sbox3/n83
*1345 sbox3/n43
*1346 sbox3/U45
*1347 sbox3/n40
*1348 sbox3/U42
*1349 sbox3/n50
*1350 sbox3/n62
*1351 sbox3/U38
*1352 sbox3/n14
*1353 sbox3/n27
*1354 sbox3/n44
*1355 sbox3/n28
*1356 sbox3/n10
*1357 sbox3/n8
*1358 sbox3/n25
*1359 sbox3/U18
*1360 sbox3/n65
*1361 sbox3/U16
*1362 sbox3/n49
*1363 sbox3/n67
*1364 sbox3/n68
*1365 sbox3/n26
*1366 sbox3/n76
*1367 sbox3/n75
*1368 sbox3/n74
*1369 sbox3/n3
*1370 sbox3/n73
*1371 sbox3/n56
*1372 sbox3/n57
*1373 sbox3/n12
*1374 sbox3/n24
*1375 sbox3/U27
*1376 sbox3/n2
*1377 sbox3/n58
*1378 sbox3/n60
*1379 sbox3/n59
*1380 sbox3/n42
*1381 sbox3/n37
*1382 sbox2/n30
*1383 sbox2/U99
*1384 sbox2/U64
*1385 sbox2/U51
*1386 sbox2/U37
*1387 sbox2/U34
*1388 sbox2/n65
*1389 sbox2/U91
*1390 sbox2/U70
*1391 sbox2/U48
*1392 sbox2/U42
*1393 sbox2/n10
*1394 sbox2/U92
*1395 sbox2/U43
*1396 sbox2/U17
*1397 sbox2/n78
*1398 sbox2/U52
*1399 sbox2/n61
*1400 sbox2/U98
*1401 sbox2/U88
*1402 sbox2/n49
*1403 sbox2/U66
*1404 sbox2/U31
*1405 sbox2/U18
*1406 sbox2/n2
*1407 sbox2/U90
*1408 sbox2/n15
*1409 sbox2/U97
*1410 sbox2/U96
*1411 sbox2/U6
*1412 s2_stag1_i\[0\]
*1413 sbox2/U93
*1414 rd1/U69
*1415 sbox2/n36
*1416 sbox2/U95
*1417 sbox2/U57
*1418 sbox2/U53
*1419 sbox2/n16
*1420 sbox2/U7
*1421 sbox2/n46
*1422 sbox2/U94
*1423 sbox2/U85
*1424 sbox2/U12
*1425 sbox2/n93
*1426 sbox2/U87
*1427 sbox2/U41
*1428 sbox2/U38
*1429 sbox2/n92
*1430 sbox2/U45
*1431 sbox2/U10
*1432 sbox2/U8
*1433 sbox2/n25
*1434 sbox2/U49
*1435 sbox2/U46
*1436 sbox2/U26
*1437 sbox2/U5
*1438 s2_stag1_i\[1\]
*1439 rd1/U67
*1440 sbox2/n75
*1441 sbox2/U89
*1442 sbox2/n9
*1443 sbox2/U21
*1444 sbox2/U4
*1445 sbox2/n76
*1446 sbox2/U20
*1447 sbox2/n77
*1448 sbox2/U19
*1449 sbox2/n14
*1450 sbox2/n73
*1451 sbox2/U9
*1452 sbox2/n74
*1453 s2_stag1_o\[0\]
*1454 rd1/U12
*1455 sbox2/n72
*1456 sbox2/n18
*1457 sbox2/U86
*1458 sbox2/n63
*1459 sbox2/n62
*1460 s2_stag1_o\[1\]
*1461 rd1/U6
*1462 sbox2/n19
*1463 sbox2/n35
*1464 sbox2/U59
*1465 sbox2/U47
*1466 sbox2/U22
*1467 sbox2/n34
*1468 sbox2/U67
*1469 sbox2/U54
*1470 sbox2/n13
*1471 sbox2/U13
*1472 sbox2/n20
*1473 s2_stag1_o\[3\]
*1474 rd1/U10
*1475 sbox2/n17
*1476 sbox2/U84
*1477 sbox2/n38
*1478 sbox2/n53
*1479 sbox2/U72
*1480 sbox2/U40
*1481 sbox2/U39
*1482 sbox2/n40
*1483 sbox2/n39
*1484 s2_stag1_o\[2\]
*1485 rd1/U9
*1486 sbox2/n88
*1487 sbox2/U83
*1488 sbox2/U73
*1489 sbox2/U65
*1490 sbox2/U61
*1491 s2_stag1_i\[3\]
*1492 sbox2/U81
*1493 sbox2/U75
*1494 rd1/U37
*1495 s2_stag1_i\[2\]
*1496 sbox2/U79
*1497 sbox2/U77
*1498 rd1/U56
*1499 sbox2/n86
*1500 sbox2/U82
*1501 sbox2/U68
*1502 sbox2/U63
*1503 sbox2/U60
*1504 s2_stag1_i\[5\]
*1505 sbox2/U78
*1506 sbox2/U76
*1507 rd1/U42
*1508 s2_stag1_i\[4\]
*1509 sbox2/U80
*1510 sbox2/U74
*1511 rd1/U57
*1512 sbox2/n83
*1513 sbox2/U69
*1514 sbox2/U58
*1515 sbox2/n7
*1516 sbox2/U56
*1517 sbox2/n84
*1518 sbox2/U62
*1519 sbox2/n4
*1520 sbox2/U55
*1521 sbox2/n81
*1522 sbox2/n6
*1523 sbox2/n85
*1524 sbox2/U71
*1525 sbox2/n5
*1526 sbox2/n91
*1527 sbox2/U14
*1528 sbox2/n87
*1529 sbox2/U28
*1530 sbox2/n58
*1531 sbox2/U32
*1532 sbox2/n27
*1533 sbox2/U44
*1534 sbox2/U23
*1535 sbox2/n28
*1536 sbox2/U35
*1537 sbox2/U15
*1538 sbox2/n50
*1539 sbox2/U30
*1540 sbox2/n82
*1541 sbox2/n52
*1542 sbox2/U16
*1543 sbox2/n29
*1544 sbox2/U50
*1545 sbox2/n32
*1546 sbox2/U29
*1547 sbox2/U25
*1548 sbox2/n59
*1549 sbox2/n31
*1550 sbox2/U36
*1551 sbox2/U33
*1552 sbox2/n48
*1553 sbox2/U24
*1554 sbox2/n54
*1555 sbox2/U3
*1556 sbox2/n79
*1557 sbox2/n12
*1558 sbox2/n80
*1559 sbox2/n11
*1560 sbox2/n57
*1561 sbox2/n69
*1562 sbox2/n68
*1563 sbox2/n67
*1564 sbox2/n64
*1565 sbox2/n66
*1566 sbox2/n60
*1567 sbox2/n56
*1568 sbox2/n55
*1569 sbox2/n33
*1570 sbox2/U27
*1571 sbox2/n8
*1572 sbox2/n71
*1573 sbox2/n37
*1574 sbox2/n70
*1575 sbox2/n47
*1576 sbox2/n24
*1577 sbox2/n44
*1578 sbox2/n26
*1579 sbox2/n45
*1580 sbox2/n22
*1581 sbox2/U11
*1582 sbox2/n89
*1583 sbox2/n90
*1584 sbox2/n1
*1585 sbox2/n23
*1586 sbox2/n21
*1587 sbox2/n3
*1588 sbox2/n41
*1589 sbox2/n43
*1590 sbox2/n42
*1591 sbox2/n51
*1592 s1_stag1_i\[1\]
*1593 sbox1/U91
*1594 sbox1/U80
*1595 sbox1/U6
*1596 rd1/U64
*1597 sbox1/n14
*1598 sbox1/U90
*1599 sbox1/U89
*1600 sbox1/n16
*1601 sbox1/U81
*1602 sbox1/n38
*1603 sbox1/U82
*1604 sbox1/U79
*1605 sbox1/U75
*1606 sbox1/U73
*1607 sbox1/U18
*1608 sbox1/U17
*1609 sbox1/U7
*1610 s1_stag1_i\[0\]
*1611 rd1/U65
*1612 sbox1/n33
*1613 sbox1/U88
*1614 sbox1/U42
*1615 sbox1/U38
*1616 sbox1/U10
*1617 sbox1/U3
*1618 sbox1/n61
*1619 sbox1/U46
*1620 sbox1/U44
*1621 sbox1/U30
*1622 sbox1/U25
*1623 sbox1/n53
*1624 sbox1/U85
*1625 sbox1/U11
*1626 sbox1/U9
*1627 sbox1/U8
*1628 sbox1/U4
*1629 sbox1/n84
*1630 sbox1/n39
*1631 sbox1/U87
*1632 sbox1/U86
*1633 sbox1/n28
*1634 sbox1/U48
*1635 sbox1/U35
*1636 sbox1/U34
*1637 sbox1/n17
*1638 sbox1/U84
*1639 sbox1/n73
*1640 sbox1/U28
*1641 sbox1/n72
*1642 s1_stag1_o\[0\]
*1643 rd1/U87
*1644 sbox1/n40
*1645 sbox1/n42
*1646 sbox1/U39
*1647 sbox1/n41
*1648 sbox1/U74
*1649 sbox1/U56
*1650 s1_stag1_o\[2\]
*1651 rd1/U86
*1652 sbox1/n82
*1653 sbox1/U62
*1654 sbox1/n10
*1655 sbox1/U13
*1656 sbox1/n83
*1657 sbox1/U76
*1658 sbox1/n48
*1659 sbox1/U52
*1660 sbox1/U41
*1661 sbox1/U19
*1662 sbox1/n18
*1663 sbox1/n20
*1664 sbox1/U31
*1665 sbox1/n19
*1666 s1_stag1_o\[3\]
*1667 rd1/U84
*1668 sbox1/n57
*1669 sbox1/U83
*1670 sbox1/U14
*1671 sbox1/n12
*1672 sbox1/n70
*1673 sbox1/U58
*1674 sbox1/n25
*1675 sbox1/U33
*1676 sbox1/n35
*1677 sbox1/U5
*1678 sbox1/n85
*1679 sbox1/U78
*1680 sbox1/U77
*1681 sbox1/n13
*1682 sbox1/U15
*1683 sbox1/n76
*1684 sbox1/n77
*1685 sbox1/U37
*1686 sbox1/n1
*1687 sbox1/n58
*1688 sbox1/U47
*1689 sbox1/n59
*1690 sbox1/n55
*1691 sbox1/n11
*1692 sbox1/n56
*1693 sbox1/U27
*1694 sbox1/n22
*1695 sbox1/n67
*1696 sbox1/U26
*1697 sbox1/n47
*1698 sbox1/U22
*1699 sbox1/n45
*1700 sbox1/n29
*1701 sbox1/U59
*1702 sbox1/n46
*1703 sbox1/U23
*1704 s1_stag1_o\[1\]
*1705 rd1/U73
*1706 sbox1/n54
*1707 sbox1/n37
*1708 sbox1/U49
*1709 sbox1/U29
*1710 sbox1/n81
*1711 sbox1/U72
*1712 sbox1/U61
*1713 s1_stag1_i\[3\]
*1714 sbox1/U69
*1715 sbox1/U66
*1716 rd1/U43
*1717 s1_stag1_i\[2\]
*1718 sbox1/U70
*1719 sbox1/U65
*1720 rd1/U58
*1721 sbox1/n79
*1722 sbox1/U71
*1723 sbox1/U57
*1724 sbox1/U51
*1725 sbox1/U43
*1726 s1_stag1_i\[5\]
*1727 sbox1/U67
*1728 sbox1/U64
*1729 rd1/U44
*1730 s1_stag1_i\[4\]
*1731 sbox1/U68
*1732 sbox1/U63
*1733 rd1/U50
*1734 sbox1/n64
*1735 sbox1/n7
*1736 sbox1/U55
*1737 sbox1/n78
*1738 sbox1/U60
*1739 sbox1/U53
*1740 sbox1/n8
*1741 sbox1/n80
*1742 sbox1/U45
*1743 sbox1/n4
*1744 sbox1/U54
*1745 sbox1/n65
*1746 sbox1/U50
*1747 sbox1/n5
*1748 sbox1/n62
*1749 sbox1/U36
*1750 sbox1/U24
*1751 sbox1/n60
*1752 sbox1/n31
*1753 sbox1/U32
*1754 sbox1/n68
*1755 sbox1/n69
*1756 sbox1/n26
*1757 sbox1/n49
*1758 sbox1/U40
*1759 sbox1/U21
*1760 sbox1/n50
*1761 sbox1/U20
*1762 sbox1/n2
*1763 sbox1/n66
*1764 sbox1/n6
*1765 sbox1/n63
*1766 sbox1/n32
*1767 sbox1/n52
*1768 sbox1/n51
*1769 sbox1/n36
*1770 sbox1/n44
*1771 sbox1/n43
*1772 sbox1/n9
*1773 sbox1/U12
*1774 sbox1/n34
*1775 sbox1/n23
*1776 sbox1/U16
*1777 sbox1/n27
*1778 sbox1/n24
*1779 sbox1/n30
*1780 sbox1/n21
*1781 sbox1/n15
*1782 sbox1/n3
*1783 sbox1/n75
*1784 sbox1/n74
*1785 sbox1/n71
*1786 stage1_iter\[2\]
*1787 rd1/kg1/U151
*1788 rd1/kg1/U150
*1789 rd1/kg1/U14
*1790 U311
*1791 U179
*1792 U137
*1793 stage1_iter_reg\[2\]
*1794 n31
*1795 U310
*1796 U292
*1797 U221
*1798 U188
*1799 rd1/kg1/n68
*1800 rd1/kg1/U84
*1801 rd1/kg1/U13
*1802 rd1/kg1/U10
*1803 stage1_iter\[3\]
*1804 rd1/kg1/U85
*1805 U287
*1806 stage1_iter_reg\[3\]
*1807 stage1_iter\[0\]
*1808 stage1_iter_reg\[0\]
*1809 rd1/kg1/U11
*1810 U307
*1811 rd1/kg1/n70
*1812 stage1_round_key_i\[0\]
*1813 rd1/kg1/U149
*1814 rd1/kg1/U148
*1815 rd1/kg1/U147
*1816 rd1/kg1/U146
*1817 rd1/kg1/U145
*1818 U183
*1819 stage1_round_key_i\[3\]
*1820 rd1/kg1/U127
*1821 rd1/kg1/U123
*1822 rd1/kg1/U122
*1823 rd1/kg1/U120
*1824 U175
*1825 rd1/kg1/n71
*1826 rd1/kg1/U51
*1827 rd1/kg1/U50
*1828 rd1/kg1/U49
*1829 rd1/kg1/U43
*1830 rd1/kg1/U91
*1831 rd1/kg1/U106
*1832 rd1/kg1/U103
*1833 rd1/kg1/U140
*1834 rd1/kg1/U136
*1835 rd1/kg1/U130
*1836 rd1/kg1/U81
*1837 rd1/kg1/U79
*1838 rd1/kg1/U55
*1839 rd1/kg1/U53
*1840 rd1/kg1/U70
*1841 rd1/kg1/U124
*1842 rd1/kg1/U67
*1843 rd1/kg1/U109
*1844 rd1/kg1/U107
*1845 rd1/kg1/U89
*1846 rd1/kg1/U61
*1847 rd1/kg1/U63
*1848 rd1/kg1/U139
*1849 rd1/kg1/U121
*1850 rd1/kg1/U144
*1851 rd1/kg1/U141
*1852 rd1/kg1/U105
*1853 rd1/kg1/U125
*1854 rd1/kg1/U137
*1855 rd1/kg1/U126
*1856 rd1/kg1/U66
*1857 rd1/kg1/U101
*1858 rd1/kg1/U71
*1859 rd1/kg1/U114
*1860 rd1/kg1/U99
*1861 rd1/kg1/U69
*1862 rd1/kg1/U95
*1863 rd1/kg1/U131
*1864 rd1/kg1/U46
*1865 rd1/kg1/U98
*1866 rd1/kg1/U118
*1867 rd1/kg1/U97
*1868 rd1/kg1/U119
*1869 rd1/kg1/U92
*1870 rd1/kg1/U129
*1871 rd1/kg1/U68
*1872 rd1/kg1/U45
*1873 rd1/kg1/U111
*1874 rd1/kg1/U117
*1875 rd1/kg1/U93
*1876 rd1/kg1/U112
*1877 rd1/kg1/U18
*1878 stage1_round_key_i\[27\]
*1879 rd1/kg1/U58
*1880 U161
*1881 rd1/kg1/n53
*1882 rd1/kg1/U142
*1883 rd1/kg1/n45
*1884 rd1/new_key\[1\]
*1885 rd1/Key_o_reg\[27\]
*1886 stage1_round_key_i\[25\]
*1887 rd1/kg1/U143
*1888 rd1/kg1/U57
*1889 U200
*1890 rd1/kg1/n72
*1891 rd1/kg1/U75
*1892 rd1/kg1/U8
*1893 rd1/kg1/U3
*1894 rd1/kg1/U102