*SPEF "1481-1998"
*DESIGN "i2c_master_top"
*DATE "Tue May  6 10:05:55 2025"
*VENDOR "Synopsys, Inc."
*PROGRAM "icc_shell"
*VERSION "W-2024.09-SP2"
*DESIGN_FLOW "PIN_CAP NONE"
*DIVIDER /
*DELIMITER :
*BUS_DELIMITER [ ]
*T_UNIT 1 NS
*C_UNIT 1 FF
*R_UNIT 1 OHM
*L_UNIT 1 HENRY

*NAME_MAP
*1 wb_adr_i[0]
*2 VDD
*3 VSS
*4 wb_dat_i[5]
*5 wb_dat_i[4]
*6 wb_dat_i[3]
*7 wb_dat_i[2]
*8 wb_dat_i[1]
*9 wb_dat_i[0]
*10 wb_adr_i[2]
*11 wb_adr_i[1]
*12 wb_dat_o[5]
*13 wb_dat_o[4]
*14 wb_dat_o[3]
*15 wb_dat_o[2]
*16 wb_dat_o[1]
*17 wb_dat_o[0]
*18 wb_dat_i[7]
*19 wb_dat_i[6]
*20 wb_cyc_i
*21 wb_stb_i
*22 wb_we_i
*23 arst_i
*24 wb_rst_i
*25 wb_clk_i
*26 wb_dat_o[7]
*27 wb_dat_o[6]
*28 sda_padoen_o
*29 sda_pad_o
*30 scl_padoen_o
*31 scl_pad_o
*32 wb_inta_o
*33 wb_ack_o
*34 sda_pad_i
*35 scl_pad_i
*36 byte_controller/bit_controller/sub_220/n23
*37 byte_controller/bit_controller/sub_220/U43
*38 byte_controller/bit_controller/sub_220/U42
*39 byte_controller/bit_controller/sub_220/U22
*40 byte_controller/bit_controller/sub_220/U13
*41 byte_controller/bit_controller/cnt\[0\]
*42 byte_controller/bit_controller/sub_220/U23
*43 byte_controller/bit_controller/sub_220/U14
*44 byte_controller/bit_controller/U46
*45 byte_controller/bit_controller/cnt_reg\[0\]
*46 byte_controller/bit_controller/cnt\[1\]
*47 byte_controller/bit_controller/U45
*48 byte_controller/bit_controller/cnt_reg\[1\]
*49 byte_controller/bit_controller/sub_220/n22
*50 byte_controller/bit_controller/sub_220/U41
*51 byte_controller/bit_controller/sub_220/U21
*52 byte_controller/bit_controller/sub_220/U12
*53 byte_controller/bit_controller/cnt\[2\]
*54 byte_controller/bit_controller/U44
*55 byte_controller/bit_controller/cnt_reg\[2\]
*56 byte_controller/bit_controller/sub_220/n21
*57 byte_controller/bit_controller/sub_220/U40
*58 byte_controller/bit_controller/sub_220/U20
*59 byte_controller/bit_controller/sub_220/U11
*60 byte_controller/bit_controller/cnt\[3\]
*61 byte_controller/bit_controller/U43
*62 byte_controller/bit_controller/cnt_reg\[3\]
*63 byte_controller/bit_controller/sub_220/n20
*64 byte_controller/bit_controller/sub_220/U39
*65 byte_controller/bit_controller/sub_220/U19
*66 byte_controller/bit_controller/sub_220/U10
*67 byte_controller/bit_controller/cnt\[4\]
*68 byte_controller/bit_controller/U42
*69 byte_controller/bit_controller/cnt_reg\[4\]
*70 byte_controller/bit_controller/sub_220/n19
*71 byte_controller/bit_controller/sub_220/U38
*72 byte_controller/bit_controller/sub_220/U18
*73 byte_controller/bit_controller/sub_220/U9
*74 byte_controller/bit_controller/cnt\[5\]
*75 byte_controller/bit_controller/U41
*76 byte_controller/bit_controller/cnt_reg\[5\]
*77 byte_controller/bit_controller/sub_220/n18
*78 byte_controller/bit_controller/sub_220/U37
*79 byte_controller/bit_controller/sub_220/U17
*80 byte_controller/bit_controller/sub_220/U8
*81 byte_controller/bit_controller/cnt\[6\]
*82 byte_controller/bit_controller/U40
*83 byte_controller/bit_controller/cnt_reg\[6\]
*84 byte_controller/bit_controller/sub_220/n17
*85 byte_controller/bit_controller/sub_220/U36
*86 byte_controller/bit_controller/sub_220/U16
*87 byte_controller/bit_controller/sub_220/U7
*88 byte_controller/bit_controller/cnt\[7\]
*89 byte_controller/bit_controller/U39
*90 byte_controller/bit_controller/cnt_reg\[7\]
*91 byte_controller/bit_controller/sub_220/n15
*92 byte_controller/bit_controller/sub_220/U35
*93 byte_controller/bit_controller/sub_220/U15
*94 byte_controller/bit_controller/sub_220/U6
*95 byte_controller/bit_controller/cnt\[8\]
*96 byte_controller/bit_controller/U38
*97 byte_controller/bit_controller/cnt_reg\[8\]
*98 byte_controller/bit_controller/sub_220/n16
*99 byte_controller/bit_controller/sub_220/U34
*100 byte_controller/bit_controller/sub_220/U33
*101 byte_controller/bit_controller/sub_220/U5
*102 byte_controller/bit_controller/cnt\[9\]
*103 byte_controller/bit_controller/U37
*104 byte_controller/bit_controller/cnt_reg\[9\]
*105 byte_controller/bit_controller/sub_220/n28
*106 byte_controller/bit_controller/sub_220/U32
*107 byte_controller/bit_controller/sub_220/U31
*108 byte_controller/bit_controller/sub_220/U4
*109 byte_controller/bit_controller/cnt\[10\]
*110 byte_controller/bit_controller/U36
*111 byte_controller/bit_controller/cnt_reg\[10\]
*112 byte_controller/bit_controller/N42
*113 byte_controller/bit_controller/sub_220/n1
*114 byte_controller/bit_controller/sub_220/n27
*115 byte_controller/bit_controller/sub_220/U30
*116 byte_controller/bit_controller/sub_220/U29
*117 byte_controller/bit_controller/sub_220/U3
*118 byte_controller/bit_controller/cnt\[11\]
*119 byte_controller/bit_controller/U35
*120 byte_controller/bit_controller/cnt_reg\[11\]
*121 byte_controller/bit_controller/N43
*122 byte_controller/bit_controller/sub_220/n2
*123 byte_controller/bit_controller/sub_220/n26
*124 byte_controller/bit_controller/sub_220/U28
*125 byte_controller/bit_controller/sub_220/U27
*126 byte_controller/bit_controller/sub_220/U2
*127 byte_controller/bit_controller/cnt\[12\]
*128 byte_controller/bit_controller/U34
*129 byte_controller/bit_controller/cnt_reg\[12\]
*130 byte_controller/bit_controller/N44
*131 byte_controller/bit_controller/sub_220/n3
*132 byte_controller/bit_controller/sub_220/n25
*133 byte_controller/bit_controller/sub_220/U25
*134 byte_controller/bit_controller/sub_220/U1
*135 byte_controller/bit_controller/cnt\[13\]
*136 byte_controller/bit_controller/U33
*137 byte_controller/bit_controller/cnt_reg\[13\]
*138 byte_controller/bit_controller/N45
*139 byte_controller/bit_controller/sub_220/n4
*140 byte_controller/bit_controller/sub_220/U26
*141 byte_controller/bit_controller/N46
*142 byte_controller/bit_controller/U32
*143 byte_controller/bit_controller/cnt\[14\]
*144 byte_controller/bit_controller/cnt_reg\[14\]
*145 byte_controller/bit_controller/sub_220/n24
*146 byte_controller/bit_controller/sub_220/U24
*147 byte_controller/bit_controller/cnt\[15\]
*148 byte_controller/bit_controller/U31
*149 byte_controller/bit_controller/cnt_reg\[15\]
*150 byte_controller/bit_controller/N47
*151 byte_controller/bit_controller/N33
*152 byte_controller/bit_controller/sub_220/n13
*153 byte_controller/bit_controller/N34
*154 byte_controller/bit_controller/sub_220/n12
*155 byte_controller/bit_controller/N35
*156 byte_controller/bit_controller/sub_220/n11
*157 byte_controller/bit_controller/N36
*158 byte_controller/bit_controller/sub_220/n10
*159 byte_controller/bit_controller/N37
*160 byte_controller/bit_controller/sub_220/n9
*161 byte_controller/bit_controller/N38
*162 byte_controller/bit_controller/sub_220/n8
*163 byte_controller/bit_controller/N39
*164 byte_controller/bit_controller/sub_220/n7
*165 byte_controller/bit_controller/N40
*166 byte_controller/bit_controller/sub_220/n6
*167 byte_controller/bit_controller/N41
*168 byte_controller/bit_controller/sub_220/n5
*169 byte_controller/bit_controller/N32
*170 byte_controller/bit_controller/n10
*171 byte_controller/bit_controller/U120
*172 byte_controller/bit_controller/U59
*173 byte_controller/bit_controller/U27
*174 byte_controller/bit_controller/U20
*175 byte_controller/bit_controller/n55
*176 byte_controller/bit_controller/U103
*177 byte_controller/bit_controller/U68
*178 byte_controller/bit_controller/U60
*179 byte_controller/bit_controller/U51
*180 byte_controller/bit_controller/U16
*181 byte_controller/bit_controller/n17
*182 byte_controller/bit_controller/U119
*183 byte_controller/bit_controller/U117
*184 byte_controller/bit_controller/c_state_reg\[1\]
*185 byte_controller/bit_controller/n153
*186 byte_controller/bit_controller/n2
*187 byte_controller/bit_controller/U25
*188 byte_controller/bit_controller/U22
*189 byte_controller/bit_controller/c_state_reg\[0\]
*190 byte_controller/bit_controller/n64
*191 byte_controller/bit_controller/U118
*192 byte_controller/bit_controller/c_state_reg\[8\]
*193 byte_controller/bit_controller/n146
*194 byte_controller/bit_controller/n16
*195 byte_controller/bit_controller/U115
*196 byte_controller/bit_controller/U88
*197 byte_controller/bit_controller/c_state_reg\[7\]
*198 byte_controller/bit_controller/n6
*199 byte_controller/bit_controller/U114
*200 byte_controller/bit_controller/c_state_reg\[2\]
*201 byte_controller/bit_controller/n152
*202 byte_controller/bit_controller/n174
*203 byte_controller/bit_controller/U116
*204 byte_controller/bit_controller/sda_chk_reg
*205 byte_controller/bit_controller/n79
*206 byte_controller/bit_controller/U89
*207 byte_controller/bit_controller/U23
*208 byte_controller/bit_controller/sda_chk
*209 byte_controller/bit_controller/U62
*210 byte_controller/bit_controller/n147
*211 byte_controller/bit_controller/n3
*212 byte_controller/bit_controller/U107
*213 byte_controller/bit_controller/c_state_reg\[6\]
*214 byte_controller/bit_controller/n20
*215 byte_controller/bit_controller/U113
*216 byte_controller/bit_controller/c_state_reg\[3\]
*217 byte_controller/bit_controller/n151
*218 byte_controller/bit_controller/n65
*219 byte_controller/bit_controller/c_state_reg\[4\]
*220 byte_controller/bit_controller/n150
*221 byte_controller/bit_controller/n59
*222 byte_controller/bit_controller/U112
*223 byte_controller/bit_controller/c_state_reg\[16\]
*224 byte_controller/bit_controller/n155
*225 byte_controller/bit_controller/n23
*226 byte_controller/bit_controller/U111
*227 byte_controller/bit_controller/c_state_reg\[15\]
*228 byte_controller/bit_controller/n139
*229 byte_controller/bit_controller/n14
*230 byte_controller/bit_controller/U109
*231 byte_controller/bit_controller/c_state_reg\[14\]
*232 byte_controller/bit_controller/n62
*233 byte_controller/bit_controller/U110
*234 byte_controller/bit_controller/c_state_reg\[12\]
*235 byte_controller/bit_controller/n142
*236 byte_controller/bit_controller/n21
*237 byte_controller/bit_controller/U108
*238 byte_controller/bit_controller/c_state_reg\[11\]
*239 byte_controller/bit_controller/n140
*240 byte_controller/bit_controller/n22
*241 byte_controller/bit_controller/U28
*242 byte_controller/bit_controller/c_state_reg\[13\]
*243 byte_controller/bit_controller/n143
*244 byte_controller/bit_controller/n13
*245 byte_controller/bit_controller/U106
*246 byte_controller/bit_controller/c_state_reg\[10\]
*247 byte_controller/bit_controller/n148
*248 byte_controller/bit_controller/n24
*249 byte_controller/bit_controller/U105
*250 byte_controller/bit_controller/c_state_reg\[5\]
*251 byte_controller/bit_controller/n144
*252 byte_controller/bit_controller/n61
*253 byte_controller/bit_controller/c_state_reg\[9\]
*254 byte_controller/bit_controller/n34
*255 byte_controller/bit_controller/U30
*256 byte_controller/bit_controller/n149
*257 byte_controller/core_cmd\[1\]
*258 byte_controller/bit_controller/U95
*259 byte_controller/bit_controller/U82
*260 byte_controller/U42
*261 byte_controller/core_cmd_reg\[1\]
*262 byte_controller/bit_controller/n12
*263 byte_controller/bit_controller/U58
*264 byte_controller/bit_controller/U47
*265 byte_controller/bit_controller/U1
*266 byte_controller/bit_controller/n132
*267 byte_controller/bit_controller/U81
*268 byte_controller/bit_controller/clk_en_reg
*269 byte_controller/bit_controller/n66
*270 byte_controller/bit_controller/U100
*271 byte_controller/bit_controller/U19
*272 byte_controller/bit_controller/U3
*273 byte_controller/bit_controller/N69
*274 byte_controller/bit_controller/U18
*275 byte_controller/bit_controller/dSCL_reg
*276 byte_controller/bit_controller/n56
*277 byte_controller/bit_controller/U21
*278 byte_controller/bit_controller/U14
*279 byte_controller/bit_controller/n97
*280 byte_controller/bit_controller/U84
*281 byte_controller/bit_controller/dscl_oen_reg
*282 byte_controller/bit_controller/n130
*283 byte_controller/bit_controller/U98
*284 byte_controller/bit_controller/sSCL
*285 byte_controller/bit_controller/U65
*286 byte_controller/bit_controller/sSCL_reg
*287 byte_controller/bit_controller/n1
*288 byte_controller/bit_controller/U97
*289 byte_controller/bit_controller/U96
*290 byte_controller/bit_controller/n50
*291 byte_controller/core_rxd
*292 byte_controller/bit_controller/dout_reg
*293 byte_controller/U78
*294 byte_controller/U57
*295 byte_controller/bit_controller/sSDA
*296 byte_controller/bit_controller/U76
*297 byte_controller/bit_controller/sSDA_reg
*298 byte_controller/bit_controller/n131
*299 byte_controller/bit_controller/n67
*300 byte_controller/bit_controller/U49
*301 byte_controller/bit_controller/U29
*302 byte_controller/bit_controller/U26
*303 byte_controller/core_cmd\[0\]
*304 byte_controller/bit_controller/U94
*305 byte_controller/U39
*306 byte_controller/core_cmd_reg\[0\]
*307 byte_controller/bit_controller/n68
*308 byte_controller/bit_controller/U24
*309 byte_controller/core_cmd\[2\]
*310 byte_controller/bit_controller/U93
*311 byte_controller/U29
*312 byte_controller/core_cmd_reg\[2\]
*313 byte_controller/bit_controller/n76
*314 byte_controller/core_cmd\[3\]
*315 byte_controller/bit_controller/U92
*316 byte_controller/bit_controller/U48
*317 byte_controller/U34
*318 byte_controller/core_cmd_reg\[3\]
*319 byte_controller/bit_controller/n71
*320 byte_controller/bit_controller/U17
*321 byte_controller/bit_controller/n9
*322 byte_controller/bit_controller/U91
*323 byte_controller/bit_controller/U53
*324 byte_controller/bit_controller/n135
*325 byte_controller/bit_controller/n75
*326 byte_controller/bit_controller/U90
*327 byte_controller/bit_controller/U57
*328 byte_controller/bit_controller/n134
*329 byte_controller/bit_controller/U69
*330 byte_controller/bit_controller/n124
*331 byte_controller/bit_controller/n125
*332 byte_controller/bit_controller/n123
*333 byte_controller/bit_controller/n128
*334 byte_controller/bit_controller/n127
*335 byte_controller/bit_controller/n83
*336 byte_controller/bit_controller/U86
*337 byte_controller/bit_controller/n8
*338 byte_controller/bit_controller/U85
*339 byte_controller/bit_controller/n84
*340 byte_controller/bit_controller/U87
*341 byte_controller/bit_controller/n118
*342 byte_controller/bit_controller/n120
*343 byte_controller/bit_controller/n121
*344 byte_controller/bit_controller/n119
*345 byte_controller/bit_controller/n129
*346 byte_controller/bit_controller/n78
*347 byte_controller/bit_controller/n122
*348 byte_controller/bit_controller/n126
*349 byte_controller/bit_controller/n63
*350 byte_controller/bit_controller/n117
*351 byte_controller/bit_controller/n89
*352 byte_controller/bit_controller/U83
*353 byte_controller/bit_controller/N64
*354 byte_controller/bit_controller/n69
*355 byte_controller/bit_controller/U70
*356 byte_controller/bit_controller/n28
*357 byte_controller/bit_controller/n57
*358 byte_controller/bit_controller/n45
*359 byte_controller/bit_controller/U80
*360 byte_controller/bit_controller/n116
*361 byte_controller/bit_controller/cmd_stop_reg
*362 byte_controller/bit_controller/n44
*363 byte_controller/bit_controller/n156
*364 byte_controller/bit_controller/N68
*365 byte_controller/bit_controller/U79
*366 byte_controller/bit_controller/N67
*367 byte_controller/bit_controller/U78
*368 byte_controller/bit_controller/N73
*369 byte_controller/bit_controller/U77
*370 byte_controller/bit_controller/sta_condition_reg
*371 byte_controller/bit_controller/N70
*372 byte_controller/bit_controller/U64
*373 byte_controller/bit_controller/dSDA_reg
*374 byte_controller/bit_controller/n15
*375 byte_controller/bit_controller/n133
*376 byte_controller/bit_controller/n101
*377 byte_controller/bit_controller/U75
*378 byte_controller/bit_controller/n103
*379 byte_controller/bit_controller/n102
*380 byte_controller/bit_controller/n92
*381 byte_controller/bit_controller/U71
*382 byte_controller/bit_controller/n100
*383 byte_controller/bit_controller/n105
*384 byte_controller/bit_controller/U74
*385 byte_controller/bit_controller/n107
*386 byte_controller/bit_controller/n106
*387 byte_controller/bit_controller/n91
*388 byte_controller/bit_controller/n104
*389 byte_controller/bit_controller/n113
*390 byte_controller/bit_controller/U73
*391 byte_controller/bit_controller/n115
*392 byte_controller/bit_controller/n114
*393 byte_controller/bit_controller/n93
*394 byte_controller/bit_controller/n112
*395 byte_controller/bit_controller/n109
*396 byte_controller/bit_controller/U72
*397 byte_controller/bit_controller/n111
*398 byte_controller/bit_controller/n110
*399 byte_controller/bit_controller/n94
*400 byte_controller/bit_controller/n108
*401 byte_controller/bit_controller/n90
*402 ctr\[7\]
*403 U200
*404 U182
*405 U177
*406 U171
*407 ctr_reg\[7\]
*408 byte_controller/bit_controller/n95
*409 byte_controller/bit_controller/N172
*410 byte_controller/bit_controller/cmd_ack_reg
*411 byte_controller/bit_controller/n98
*412 byte_controller/bit_controller/U67
*413 byte_controller/bit_controller/n99
*414 byte_controller/bit_controller/busy_reg
*415 byte_controller/bit_controller/n87
*416 byte_controller/bit_controller/U66
*417 byte_controller/bit_controller/N76
*418 byte_controller/bit_controller/n51
*419 byte_controller/bit_controller/sto_condition_reg
*420 byte_controller/bit_controller/N74
*421 byte_controller/bit_controller/n48
*422 byte_controller/bit_controller/n11
*423 byte_controller/bit_controller/U63
*424 byte_controller/bit_controller/U15
*425 byte_controller/bit_controller/n58
*426 byte_controller/bit_controller/n81
*427 byte_controller/bit_controller/U61
*428 byte_controller/bit_controller/sto_condition
*429 byte_controller/bit_controller/n80
*430 byte_controller/bit_controller/U50
*431 byte_controller/bit_controller/sda_oen_reg
*432 byte_controller/bit_controller/N84
*433 byte_controller/bit_controller/al_reg
*434 byte_controller/bit_controller/n74
*435 byte_controller/bit_controller/U55
*436 byte_controller/bit_controller/n137
*437 byte_controller/bit_controller/n77
*438 byte_controller/bit_controller/n70
*439 byte_controller/bit_controller/U56
*440 byte_controller/bit_controller/U54
*441 byte_controller/bit_controller/n136
*442 byte_controller/bit_controller/n73
*443 byte_controller/bit_controller/n53
*444 byte_controller/bit_controller/n72
*445 byte_controller/bit_controller/n173
*446 byte_controller/bit_controller/scl_oen_reg
*447 byte_controller/bit_controller/n7
*448 byte_controller/core_txd
*449 byte_controller/core_txd_reg
*450 byte_controller/bit_controller/n4
*451 byte_controller/bit_controller/U52
*452 byte_controller/bit_controller/n54
*453 byte_controller/bit_controller/n5
*454 byte_controller/bit_controller/n138
*455 byte_controller/bit_controller/n26
*456 byte_controller/bit_controller/n60
*457 byte_controller/bit_controller/n27
*458 byte_controller/bit_controller/n145
*459 prer\[0\]
*460 U192
*461 U139
*462 prer_reg\[0\]
*463 byte_controller/bit_controller/n172
*464 byte_controller/bit_controller/n37
*465 byte_controller/bit_controller/U2
*466 prer\[1\]
*467 U196
*468 U140
*469 prer_reg\[1\]
*470 byte_controller/bit_controller/n47
*471 byte_controller/bit_controller/n171
*472 prer\[2\]
*473 U210
*474 U141
*475 prer_reg\[2\]
*476 byte_controller/bit_controller/n170
*477 byte_controller/bit_controller/n36
*478 prer\[3\]
*479 U213
*480 U142
*481 prer_reg\[3\]
*482 byte_controller/bit_controller/n169
*483 prer\[4\]
*484 U216
*485 U143
*486 prer_reg\[4\]
*487 byte_controller/bit_controller/n168
*488 prer\[5\]
*489 U204
*490 U144
*491 prer_reg\[5\]
*492 byte_controller/bit_controller/n167
*493 prer\[6\]
*494 U208
*495 U145
*496 prer_reg\[6\]
*497 byte_controller/bit_controller/n166
*498 prer\[7\]
*499 U146
*500 prer_reg\[7\]
*501 byte_controller/bit_controller/n165
*502 prer\[8\]
*503 U147
*504 prer_reg\[8\]
*505 byte_controller/bit_controller/n164
*506 prer\[9\]
*507 U148
*508 prer_reg\[9\]
*509 byte_controller/bit_controller/n163
*510 prer\[10\]
*511 U149
*512 prer_reg\[10\]
*513 byte_controller/bit_controller/n162
*514 prer\[11\]
*515 U150
*516 prer_reg\[11\]
*517 byte_controller/bit_controller/n161
*518 prer\[12\]
*519 U151
*520 prer_reg\[12\]
*521 byte_controller/bit_controller/n160
*522 prer\[13\]
*523 U152
*524 prer_reg\[13\]
*525 byte_controller/bit_controller/n159
*526 prer\[14\]
*527 U153
*528 prer_reg\[14\]
*529 byte_controller/bit_controller/n158
*530 prer\[15\]
*531 U154
*532 prer_reg\[15\]
*533 byte_controller/bit_controller/n157
*534 byte_controller/bit_controller/n19
*535 byte_controller/bit_controller/n18
*536 byte_controller/bit_controller/n141
*537 i2c_al
*538 byte_controller/U23
*539 U226
*540 U223
*541 byte_controller/bit_controller/n40
*542 byte_controller/bit_controller/n154
*543 byte_controller/bit_controller/n29
*544 byte_controller/bit_controller/n25
*545 byte_controller/bit_controller/U4
*546 U2
*547 U4
*548 U3
*549 byte_controller/bit_controller/n38
*550 byte_controller/bit_controller/n39
*551 cr_reg\[0\]
*552 wb_ack_o_reg
*553 wb_dat_o_reg\[5\]
*554 wb_dat_o_reg\[2\]
*555 wb_dat_o_reg\[3\]
*556 wb_dat_o_reg\[4\]
*557 wb_dat_o_reg\[6\]
*558 cr_reg\[7\]
*559 irq_flag_reg
*560 wb_inta_o_reg
*561 tip_reg
*562 al_reg
*563 rxack_reg
*564 wb_dat_o_reg\[0\]
*565 wb_dat_o_reg\[1\]
*566 wb_dat_o_reg\[7\]
*567 ctr_reg\[3\]
*568 ctr_reg\[4\]
*569 cr_reg\[4\]
*570 cr_reg\[5\]
*571 cr_reg\[6\]
*572 cr_reg\[2\]
*573 cr_reg\[1\]
*574 cr_reg\[3\]
*575 txr_reg\[7\]
*576 txr_reg\[2\]
*577 txr_reg\[3\]
*578 txr_reg\[4\]
*579 ctr_reg\[0\]
*580 ctr_reg\[1\]
*581 ctr_reg\[5\]
*582 ctr_reg\[2\]
*583 byte_controller/dcnt_reg\[0\]
*584 byte_controller/ld_reg
*585 ctr_reg\[6\]
*586 txr_reg\[0\]
*587 txr_reg\[1\]
*588 txr_reg\[5\]
*589 txr_reg\[6\]
*590 byte_controller/sr_reg\[4\]
*591 byte_controller/sr_reg\[5\]
*592 byte_controller/sr_reg\[6\]
*593 byte_controller/sr_reg\[7\]
*594 byte_controller/sr_reg\[0\]
*595 byte_controller/shift_reg
*596 byte_controller/ack_out_reg
*597 byte_controller/c_state_reg\[3\]
*598 byte_controller/dcnt_reg\[2\]
*599 byte_controller/sr_reg\[1\]
*600 byte_controller/sr_reg\[2\]
*601 byte_controller/sr_reg\[3\]
*602 byte_controller/cmd_ack_reg
*603 byte_controller/c_state_reg\[4\]
*604 byte_controller/c_state_reg\[2\]
*605 byte_controller/c_state_reg\[0\]
*606 byte_controller/c_state_reg\[1\]
*607 byte_controller/dcnt_reg\[1\]
*608 byte_controller/core_ack
*609 byte_controller/U83
*610 byte_controller/U82
*611 byte_controller/U75
*612 byte_controller/U67
*613 byte_controller/U49
*614 sr\[6\]
*615 U206
*616 byte_controller/dcnt\[0\]
*617 byte_controller/U87
*618 byte_controller/U85
*619 byte_controller/U84
*620 byte_controller/U45
*621 byte_controller/n46
*622 byte_controller/U17
*623 byte_controller/n45
*624 byte_controller/U86
*625 byte_controller/n74
*626 byte_controller/n43
*627 byte_controller/U48
*628 byte_controller/n44
*629 byte_controller/U60
*630 byte_controller/U13
*631 byte_controller/U2
*632 byte_controller/n47
*633 byte_controller/U46
*634 byte_controller/U1
*635 byte_controller/dcnt\[1\]
*636 byte_controller/U47
*637 byte_controller/U44
*638 byte_controller/n29
*639 byte_controller/U71
*640 byte_controller/U35
*641 byte_controller/U30
*642 byte_controller/U16
*643 byte_controller/U10
*644 byte_controller/dcnt\[2\]
*645 byte_controller/U43
*646 byte_controller/n63
*647 byte_controller/U76
*648 byte_controller/n13
*649 byte_controller/U58
*650 byte_controller/c_state\[1\]
*651 byte_controller/U70
*652 byte_controller/U31
*653 byte_controller/U24
*654 byte_controller/c_state\[3\]
*655 byte_controller/U80
*656 byte_controller/U69
*657 byte_controller/U59
*658 byte_controller/U37
*659 byte_controller/n23
*660 byte_controller/U15
*661 byte_controller/n48
*662 byte_controller/U81
*663 byte_controller/n88
*664 byte_controller/U63
*665 byte_controller/U61
*666 byte_controller/U21
*667 byte_controller/n89
*668 byte_controller/U64
*669 byte_controller/n34
*670 byte_controller/U41
*671 byte_controller/n86
*672 byte_controller/U22
*673 byte_controller/U14
*674 cr\[6\]
*675 byte_controller/U72
*676 U207
*677 U175
*678 byte_controller/n40
*679 byte_controller/U79
*680 byte_controller/U27
*681 cr\[7\]
*682 byte_controller/U40
*683 U199
*684 U176
*685 byte_controller/n49
*686 byte_controller/U11
*687 byte_controller/n22
*688 byte_controller/U77
*689 byte_controller/n18
*690 byte_controller/U74
*691 irxack
*692 U222
*693 byte_controller/n64
*694 byte_controller/n15
*695 byte_controller/U73
*696 byte_controller/U66
*697 byte_controller/U7
*698 byte_controller/U6
*699 byte_controller/n11
*700 byte_controller/n14
*701 byte_controller/n62
*702 byte_controller/n12
*703 byte_controller/n61
*704 cr\[3\]
*705 U214
*706 U183
*707 byte_controller/n60
*708 rxr\[7\]
*709 byte_controller/U50
*710 U198
*711 byte_controller/N104
*712 byte_controller/n87
*713 byte_controller/n59
*714 byte_controller/c_state\[2\]
*715 byte_controller/U32
*716 byte_controller/U19
*717 byte_controller/N105
*718 byte_controller/n54
*719 byte_controller/U68
*720 byte_controller/U65
*721 byte_controller/n55
*722 byte_controller/c_state\[4\]
*723 byte_controller/N107
*724 byte_controller/n56
*725 byte_controller/n85
*726 byte_controller/c_state\[0\]
*727 byte_controller/U38
*728 byte_controller/N106
*729 byte_controller/n51
*730 byte_controller/U62
*731 cr\[4\]
*732 U225
*733 U217
*734 U173
*735 byte_controller/n2
*736 byte_controller/n1
*737 cr\[5\]
*738 byte_controller/U26
*739 U203
*740 U174
*741 byte_controller/ld
*742 byte_controller/n58
*743 txr\[0\]
*744 U191
*745 U156
*746 rxr\[0\]
*747 byte_controller/U56
*748 U190
*749 byte_controller/n53
*750 byte_controller/U55
*751 byte_controller/U54
*752 byte_controller/U53
*753 byte_controller/U52
*754 byte_controller/U51
*755 byte_controller/n83
*756 txr\[1\]
*757 U195
*758 U157
*759 rxr\[1\]
*760 U194
*761 byte_controller/n84
*762 txr\[2\]
*763 U211
*764 U158
*765 rxr\[2\]
*766 byte_controller/n82
*767 txr\[3\]
*768 U159
*769 rxr\[3\]
*770 byte_controller/n81
*771 txr\[4\]
*772 U160
*773 rxr\[4\]
*774 byte_controller/n80
*775 txr\[5\]
*776 U161
*777 rxr\[5\]
*778 U202
*779 byte_controller/n79
*780 txr\[6\]
*781 U162
*782 rxr\[6\]
*783 byte_controller/n78
*784 txr\[7\]
*785 U163
*786 byte_controller/n77
*787 byte_controller/n52
*788 byte_controller/n50
*789 byte_controller/U9
*790 byte_controller/n20
*791 byte_controller/n42
*792 byte_controller/n75
*793 byte_controller/n7
*794 byte_controller/n16
*795 byte_controller/shift
*796 byte_controller/n41
*797 byte_controller/n73
*798 byte_controller/n57
*799 byte_controller/n17
*800 byte_controller/n28
*801 byte_controller/n67
*802 byte_controller/n76
*803 byte_controller/n35
*804 byte_controller/n68
*805 byte_controller/n72
*806 byte_controller/n36
*807 byte_controller/U36
*808 byte_controller/n69
*809 byte_controller/n33
*810 byte_controller/U28
*811 byte_controller/n27
*812 byte_controller/U33
*813 byte_controller/n25
*814 byte_controller/n24
*815 byte_controller/n26
*816 byte_controller/U25
*817 byte_controller/n65
*818 byte_controller/n31
*819 byte_controller/n30
*820 byte_controller/n32
*821 byte_controller/U20
*822 byte_controller/n66
*823 byte_controller/n39
*824 byte_controller/n9
*825 byte_controller/n71
*826 byte_controller/n37
*827 byte_controller/n38
*828 byte_controller/n10
*829 byte_controller/n70
*830 U132
*831 U125
*832 U124
*833 U1
*834 done
*835 U227
*836 U172
*837 N20
*838 n1
*839 n21
*840 U221
*841 U134
*842 N116
*843 n60
*844 U224
*845 sr\[5\]
*846 n4
*847 N114
*848 N115
*849 n59
*850 U220
*851 sr_0
*852 U219
*853 n5
*854 N117
*855 ctr\[6\]
*856 U170
*857 N121
*858 U218
*859 U188
*860 U187
*861 U184
*862 n39
*863 n135
*864 U185
*865 U116
*866 U115
*867 U186
*868 U117
*869 n40
*870 n104
*871 n47
*872 U215
*873 n102
*874 U123
*875 ctr\[4\]
*876 U168
*877 n101
*878 U122
*879 U114
*880 n48
*881 n103
*882 N47
*883 n49
*884 U212
*885 ctr\[3\]
*886 U167
*887 n50
*888 N46
*889 n51
*890 U209
*891 cr\[2\]
*892 U180
*893 ctr\[2\]
*894 U166
*895 n52
*896 N45
*897 n119
*898 U205
*899 n118
*900 n25
*901 n117
*902 N49
*903 n116
*904 U201
*905 ctr\[5\]
*906 U169
*907 n115
*908 n114
*909 N48
*910 n113
*911 U197
*912 n112
*913 n111
*914 sr\[7\]
*915 N50
*916 n110
*917 U193
*918 ctr\[1\]
*919 U165
*920 n109
*921 cr\[1\]
*922 U179
*923 n108
*924 sr_1
*925 N44
*926 n107
*927 U189
*928 ctr\[0\]
*929 U164
*930 n106
*931 cr\[0\]
*932 U178
*933 n105
*934 N43
*935 n134
*936 n133
*937 n23
*938 U181
*939 n17
*940 U135
*941 U133
*942 n15
*943 U130
*944 U129
*945 U127
*946 U126
*947 n24
*948 n68
*949 n132
*950 U131
*951 n63
*952 n14
*953 n62
*954 n61
*955 n127
*956 U128
*957 n64
*958 n18
*959 n65
*960 n66
*961 n67
*962 n22
*963 n33
*964 n100
*965 n128
*966 U121
*967 n99
*968 n98
*969 n97
*970 n96
*971 n95
*972 n94
*973 n93
*974 n129
*975 U120
*976 n30
*977 n92
*978 n91
*979 n90
*980 n89
*981 n88
*982 n87
*983 n86
*984 n85
*985 n28
*986 U5
*987 n84
*988 n83
*989 n82
*990 n81
*991 n80
*992 n79
*993 n78
*994 n77
*995 n26
*996 U6
*997 n76
*998 n75
*999 n74
*1000 n73
*1001 n72
*1002 n71
*1003 n70
*1004 n69
*1005 n16
*1006 n20
*1007 n19
*1008 n34
*1009 n31
*1010 n2
*1011 n3
*1012 n6
*1013 n7
*1014 n8
*1015 n9
*1016 byte_controller/n90
*1017 byte_controller/n91

*PORTS
*1 I *L 0.0 *S 0.0 0.0
*2 I *L 0.0 *S 0.0 0.0
*3 I *L 0.0 *S 0.0 0.0
*4 I *L 0.0 *S 0.0 0.0
*5 I *L 0.0 *S 0.0 0.0
*6 I *L 0.0 *S 0.0 0.0
*7 I *L 0.0 *S 0.0 0.0
*8 I *L 0.0 *S 0.0 0.0
*9 I *L 0.0 *S 0.0 0.0
*10 I *L 0.0 *S 0.0 0.0
*11 I *L 0.0 *S 0.0 0.0
*12 O *L 0.0 *S 0.0 0.0
*13 O *L 0.0 *S 0.0 0.0
*14 O *L 0.0 *S 0.0 0.0
*15 O *L 0.0 *S 0.0 0.0
*16 O *L 0.0 *S 0.0 0.0
*17 O *L 0.0 *S 0.0 0.0
*18 I *L 0.0 *S 0.0 0.0
*19 I *L 0.0 *S 0.0 0.0
*20 I *L 0.0 *S 0.0 0.0
*21 I *L 0.0 *S 0.0 0.0
*22 I *L 0.0 *S 0.0 0.0
*23 I *L 0.0 *S 0.0 0.0
*24 I *L 0.0 *S 0.0 0.0
*25 I *L 0.0 *S 0.0 0.0
*26 O *L 0.0 *S 0.0 0.0
*27 O *L 0.0 *S 0.0 0.0
*28 O *L 0.0 *S 0.0 0.0
*29 O *L 0.0 *S 0.0 0.0
*30 O *L 0.0 *S 0.0 0.0
*31 O *L 0.0 *S 0.0 0.0
*32 O *L 0.0 *S 0.0 0.0
*33 O *L 0.0 *S 0.0 0.0
*34 I *L 0.0 *S 0.0 0.0
*35 I *L 0.0 *S 0.0 0.0

*D_NET *36 0.7854593

*CONN
*I *37:Y O *L 0.0 *D OR2X1_RVT *C 32.952 22.92
*I *38:A1 I *L 549.6215 *C 28.62 22.626
*I *39:A2 I *L 442.1154 *C 29.487 22.616
*I *40:A I *L 688.1503 *C 34.016 20.792
*N *36:5 *C 34.016 20.792
*N *36:6 *C 34.016 22.464
*N *36:7 *C 34.016 22.464
*N *36:8 *C 29.456 22.464
*N *36:9 *C 29.456 22.464
*N *36:10 *C 29.456 22.464