*SPEF "1481-1998"
*DESIGN "pcm_slv_top"
*DATE "Tue May  6 09:31:14 2025"
*VENDOR "Synopsys, Inc."
*PROGRAM "icc_shell"
*VERSION "W-2024.09-SP2"
*DESIGN_FLOW "PIN_CAP NONE"
*DIVIDER /
*DELIMITER :
*BUS_DELIMITER [ ]
*T_UNIT 1 NS
*C_UNIT 1 FF
*R_UNIT 1 OHM
*L_UNIT 1 HENRY

*NAME_MAP
*1 din_i[0]
*2 ssel[2]
*3 ssel[1]
*4 ssel[0]
*5 VDD
*6 VSS
*7 dout_o[0]
*8 din_i[7]
*9 din_i[6]
*10 din_i[5]
*11 din_i[4]
*12 din_i[3]
*13 din_i[2]
*14 din_i[1]
*15 we_i[0]
*16 dout_o[7]
*17 dout_o[6]
*18 dout_o[5]
*19 dout_o[4]
*20 dout_o[3]
*21 dout_o[2]
*22 dout_o[1]
*23 pcm_dout_o
*24 re_i
*25 pcm_din_i
*26 pcm_sync_i
*27 pcm_clk_i
*28 rst
*29 clk
*30 we_i[1]
*31 n143
*32 U266
*33 U262
*34 n142
*35 U265
*36 N6
*37 pcm_sync_r2_reg
*38 n146
*39 U247
*40 N5
*41 N4
*42 U248
*43 n140
*44 U264
*45 n145
*46 n141
*47 U263
*48 N3
*49 U261
*50 U260
*51 U243
*52 psa\[0\]
*53 U193
*54 U192
*55 psa_reg\[0\]
*56 n144
*57 psa\[1\]
*58 U191
*59 psa_reg\[1\]
*60 psa\[2\]
*61 U190
*62 psa_reg\[2\]
*63 psa\[3\]
*64 U189
*65 psa_reg\[3\]
*66 n139
*67 n138
*68 psa\[4\]
*69 U188
*70 psa_reg\[4\]
*71 psa\[5\]
*72 U187
*73 psa_reg\[5\]
*74 psa\[6\]
*75 U186
*76 psa_reg\[6\]
*77 psa\[7\]
*78 psa_reg\[7\]
*79 n20
*80 U259
*81 U139
*82 U10
*83 psync
*84 U253
*85 psync_reg
*86 n21
*87 U184
*88 U180
*89 U159
*90 U140
*91 U7
*92 n9
*93 U181
*94 U138
*95 U6
*96 n19
*97 U194
*98 U5
*99 U250
*100 U241
*101 U195
*102 n13
*103 U8
*104 n155
*105 U246
*106 U245
*107 U137
*108 n14
*109 U200
*110 n1
*111 U242
*112 n66
*113 pcm_sync_r1_reg
*114 n38
*115 n39
*116 rxd_t_reg
*117 rxd_t
*118 rxd_reg
*119 tx_cnt\[1\]
*120 U244
*121 U161
*122 U157
*123 tx_cnt_reg\[1\]
*124 n31
*125 U196
*126 U158
*127 tx_cnt\[0\]
*128 U183
*129 tx_cnt_reg\[0\]
*130 tx_cnt\[2\]
*131 U156
*132 tx_cnt_reg\[2\]
*133 pclk_s
*134 U182
*135 pclk_s_reg
*136 pclk_r_reg
*137 n121
*138 n127
*139 U9
*140 n99
*141 U240
*142 rx_hold_reg_reg\[0\]
*143 rx_hold_reg\[0\]
*144 U239
*145 U163
*146 rxd
*147 n98
*148 rx_hold_reg_reg\[1\]
*149 rx_hold_reg\[1\]
*150 U238
*151 U164
*152 n97
*153 rx_hold_reg_reg\[2\]
*154 rx_hold_reg\[2\]
*155 U237
*156 U165
*157 n96
*158 rx_hold_reg_reg\[3\]
*159 rx_hold_reg\[3\]
*160 U236
*161 U166
*162 n95
*163 rx_hold_reg_reg\[4\]
*164 rx_hold_reg\[4\]
*165 U235
*166 U167
*167 n94
*168 rx_hold_reg_reg\[5\]
*169 rx_hold_reg\[5\]
*170 U234
*171 U168
*172 n93
*173 rx_hold_reg_reg\[6\]
*174 rx_hold_reg\[6\]
*175 U233
*176 U169
*177 n92
*178 rx_hold_reg_reg\[7\]
*179 rx_hold_reg\[7\]
*180 U232
*181 U170
*182 n91
*183 rx_hold_reg_reg\[8\]
*184 rx_hold_reg\[8\]
*185 U231
*186 U171
*187 n90
*188 rx_hold_reg_reg\[9\]
*189 rx_hold_reg\[9\]
*190 U230
*191 U172
*192 n89
*193 rx_hold_reg_reg\[10\]
*194 rx_hold_reg\[10\]
*195 U229
*196 U173
*197 n88
*198 rx_hold_reg_reg\[11\]
*199 rx_hold_reg\[11\]
*200 U228
*201 U174
*202 n87
*203 rx_hold_reg_reg\[12\]
*204 rx_hold_reg\[12\]
*205 U227
*206 U175
*207 n86
*208 rx_hold_reg_reg\[13\]
*209 rx_hold_reg\[13\]
*210 U226
*211 U176
*212 n85
*213 rx_hold_reg_reg\[14\]
*214 rx_hold_reg\[14\]
*215 U225
*216 U177
*217 n84
*218 rx_hold_reg_reg\[15\]
*219 rx_hold_reg\[15\]
*220 U178
*221 U1
*222 U224
*223 U223
*224 U222
*225 U221
*226 U220
*227 U219
*228 U218
*229 U217
*230 n56
*231 tx_hold_byte_h_reg\[7\]
*232 U216
*233 tx_hold_byte_h\[7\]
*234 U141
*235 n55
*236 tx_hold_byte_h_reg\[6\]
*237 U215
*238 tx_hold_byte_h\[6\]
*239 U142
*240 n54
*241 tx_hold_byte_h_reg\[5\]
*242 U214
*243 tx_hold_byte_h\[5\]
*244 U143
*245 n53
*246 tx_hold_byte_h_reg\[4\]
*247 U213
*248 tx_hold_byte_h\[4\]
*249 U144
*250 n52
*251 tx_hold_byte_h_reg\[3\]
*252 U212
*253 tx_hold_byte_h\[3\]
*254 U145
*255 n51
*256 tx_hold_byte_h_reg\[2\]
*257 U211
*258 tx_hold_byte_h\[2\]
*259 U146
*260 n50
*261 tx_hold_byte_h_reg\[1\]
*262 U210
*263 tx_hold_byte_h\[1\]
*264 U147
*265 n49
*266 tx_hold_byte_h_reg\[0\]
*267 U209
*268 tx_hold_byte_h\[0\]
*269 U148
*270 n48
*271 tx_hold_byte_l_reg\[7\]
*272 U3
*273 tx_hold_byte_l\[7\]
*274 U149
*275 n47
*276 tx_hold_byte_l_reg\[6\]
*277 tx_hold_byte_l\[6\]
*278 U150
*279 n46
*280 tx_hold_byte_l_reg\[5\]
*281 tx_hold_byte_l\[5\]
*282 U151
*283 n45
*284 tx_hold_byte_l_reg\[4\]
*285 tx_hold_byte_l\[4\]
*286 U152
*287 n44
*288 tx_hold_byte_l_reg\[3\]
*289 tx_hold_byte_l\[3\]
*290 U153
*291 n43
*292 tx_hold_byte_l_reg\[2\]
*293 tx_hold_byte_l\[2\]
*294 U154
*295 n42
*296 tx_hold_byte_l_reg\[1\]
*297 tx_hold_byte_l\[1\]
*298 U155
*299 n41
*300 tx_hold_byte_l_reg\[0\]
*301 tx_hold_byte_l\[0\]
*302 U179
*303 rx_reg\[15\]
*304 U208
*305 rx_reg_reg\[15\]
*306 rx_reg\[7\]
*307 rx_reg_reg\[7\]
*308 U2
*309 U207
*310 U206
*311 U205
*312 U204
*313 U203
*314 U202
*315 U201
*316 rx_reg\[14\]
*317 rx_reg_reg\[14\]
*318 rx_reg\[6\]
*319 rx_reg_reg\[6\]
*320 rx_reg\[13\]
*321 rx_reg_reg\[13\]
*322 rx_reg\[5\]
*323 rx_reg_reg\[5\]
*324 rx_reg\[12\]
*325 rx_reg_reg\[12\]
*326 rx_reg\[4\]
*327 rx_reg_reg\[4\]
*328 rx_reg\[11\]
*329 rx_reg_reg\[11\]
*330 rx_reg\[3\]
*331 rx_reg_reg\[3\]
*332 rx_reg\[10\]
*333 rx_reg_reg\[10\]
*334 rx_reg\[2\]
*335 rx_reg_reg\[2\]
*336 rx_reg\[9\]
*337 rx_reg_reg\[9\]
*338 rx_reg\[1\]
*339 rx_reg_reg\[1\]
*340 rx_reg\[8\]
*341 rx_reg_reg\[8\]
*342 rx_reg\[0\]
*343 rx_reg_reg\[0\]
*344 tx_go_r1
*345 U185
*346 tx_go_r1_reg
*347 tx_go
*348 tx_go_reg
*349 n30
*350 tx_cnt\[3\]
*351 tx_cnt_reg\[3\]
*352 n29
*353 n118
*354 n3
*355 U4
*356 n65
*357 n64
*358 n63
*359 n62
*360 n61
*361 n60
*362 n59
*363 n58
*364 n40
*365 n35
*366 n123
*367 n120
*368 n122
*369 tx_hold_reg\[0\]
*370 tx_hold_reg_reg\[0\]
*371 n114
*372 n83
*373 n82
*374 n81
*375 n80
*376 n79
*377 n78
*378 n77
*379 n76
*380 n75
*381 n74
*382 n73
*383 n72
*384 n71
*385 n70
*386 n69
*387 n68
*388 n23
*389 U162
*390 n124
*391 U130
*392 n22
*393 n116
*394 n32
*395 U160
*396 n125
*397 n26
*398 n33
*399 n119
*400 n27
*401 n117
*402 tx_hold_reg\[1\]
*403 tx_hold_reg_reg\[1\]
*404 n115
*405 n17
*406 tx_hold_reg\[2\]
*407 tx_hold_reg_reg\[2\]
*408 n113
*409 tx_hold_reg\[3\]
*410 tx_hold_reg_reg\[3\]
*411 n112
*412 tx_hold_reg\[4\]
*413 tx_hold_reg_reg\[4\]
*414 n111
*415 tx_hold_reg\[5\]
*416 tx_hold_reg_reg\[5\]
*417 n110
*418 tx_hold_reg\[6\]
*419 tx_hold_reg_reg\[6\]
*420 n109
*421 tx_hold_reg\[7\]
*422 tx_hold_reg_reg\[7\]
*423 n108
*424 tx_hold_reg\[8\]
*425 tx_hold_reg_reg\[8\]
*426 n107
*427 tx_hold_reg\[9\]
*428 tx_hold_reg_reg\[9\]
*429 n106
*430 tx_hold_reg\[10\]
*431 tx_hold_reg_reg\[10\]
*432 n105
*433 tx_hold_reg\[11\]
*434 tx_hold_reg_reg\[11\]
*435 n104
*436 tx_hold_reg\[12\]
*437 tx_hold_reg_reg\[12\]
*438 n103
*439 tx_hold_reg\[13\]
*440 tx_hold_reg_reg\[13\]
*441 n102
*442 tx_hold_reg\[14\]
*443 tx_hold_reg_reg\[14\]
*444 n101
*445 tx_hold_reg_reg\[15\]
*446 n100
*447 n126
*448 U11
*449 n67
*450 pcm_sync_r3_reg
*451 pcm_sync_r2
*452 pclk_t_reg
*453 pclk_t
*454 n2
*455 n4
*456 n5
*457 n6
*458 n7
*459 n8
*460 n10
*461 n11
*462 n12
*463 n15
*464 n16

*PORTS
*1 I *L 0.0 *S 0.0 0.0
*2 I *L 0.0 *S 0.0 0.0
*3 I *L 0.0 *S 0.0 0.0
*4 I *L 0.0 *S 0.0 0.0
*5 I *L 0.0 *S 0.0 0.0
*6 I *L 0.0 *S 0.0 0.0
*7 O *L 0.0 *S 0.0 0.0
*8 I *L 0.0 *S 0.0 0.0
*9 I *L 0.0 *S 0.0 0.0
*10 I *L 0.0 *S 0.0 0.0
*11 I *L 0.0 *S 0.0 0.0
*12 I *L 0.0 *S 0.0 0.0
*13 I *L 0.0 *S 0.0 0.0
*14 I *L 0.0 *S 0.0 0.0
*15 I *L 0.0 *S 0.0 0.0
*16 O *L 0.0 *S 0.0 0.0
*17 O *L 0.0 *S 0.0 0.0
*18 O *L 0.0 *S 0.0 0.0
*19 O *L 0.0 *S 0.0 0.0
*20 O *L 0.0 *S 0.0 0.0
*21 O *L 0.0 *S 0.0 0.0
*22 O *L 0.0 *S 0.0 0.0
*23 O *L 0.0 *S 0.0 0.0
*24 I *L 0.0 *S 0.0 0.0
*25 I *L 0.0 *S 0.0 0.0
*26 I *L 0.0 *S 0.0 0.0
*27 I *L 0.0 *S 0.0 0.0
*28 I *L 0.0 *S 0.0 0.0
*29 I *L 0.0 *S 0.0 0.0
*30 I *L 0.0 *S 0.0 0.0

*D_NET *31 0.3537834

*CONN
*I *32:A2 I *L 450.7719 *C 32.952 14.408
*I *33:Y O *L 0.0 *D AO22X1_RVT *C 33.408 10.291
*N *31:3 *C 32.952 14.408
*N *31:4 *C 32.952 11.216
*N *31:5 *C 32.952 11.216

*CAP
1 *32:A2 0.0
2 *33:Y 0.02445717
3 *31:3 0.1282465
4 *31:4 0.1282465
5 *31:5 0.02445717
6 *31:3 *34:10 0.02418802
7 *31:4 *34:8 0.02418802

*RES
1 *31:3 *32:A2 1.0
2 *31:4 *31:5 1.0
3 *31:5 *33:Y 0.9620001
4 *31:4 *31:3 5.604943

*END

*D_NET *34 0.226888

*CONN
*I *32:A3 I *L 480.044 *C 33.256 13.496
*I *35:Y O *L 0.0 *D AO22X1_RVT *C 32.648 13.052
*N *34:8 *C 33.256 12.128
*N *34:9 *C 33.256 12.128
*N *34:10 *C 33.256 13.496

*CAP
1 *32:A3 0.0
2 *35:Y 0.04290982
3 *34:8 0.04634618
4 *34:9 0.04290982
5 *34:10 0.04634618
6 *34:10 *31:3 0.02418802
7 *34:8 *31:4 0.02418802

*RES
1 *34:8 *34:9 1.0
2 *34:10 *32:A3 1.0
3 *35:Y *34:9 1.296
4 *34:8 *34:10 2.353678

*END

*D_NET *36 3.227406

*CONN
*I *32:Y O *L 0.0 *D AO22X1_RVT *C 33.712 14.56
*I *37:D I *L 496.4084 *C 35.992 44.048
*N *36:13 *C 33.712 14.56
*N *36:14 *C 33.712 43.44
*N *36:15 *C 33.712 43.44
*N *36:16 *C 35.992 43.44
*N *36:17 *C 35.992 43.44
*N *36:18 *C 35.992 44.048

*CAP
1 *32:Y 0.0
2 *37:D 0.0
3 *36:13 0.9521586
4 *36:14 0.09844115
5 *36:15 0.9521586
6 *36:16 0.09844115
7 *36:17 0.03293663
8 *36:18 0.03293663
9 *36:15 *381:2203 0.02511231
10 *36:15 *381:2201 0.02511231
11 *36:13 *409:2482 0.03088421
12 *36:13 *409:2484 0.03088421
13 *36:13 *433:2635 0.06244657
14 *36:13 *433:2638 0.06244657
15 *36:15 *455:3233 0.1525783
16 *36:15 *455:3204 0.2150215
17 *36:15 *455:3219 0.2591448
18 *36:13 *455:3199 0.1967017

*RES
1 *36:13 *32:Y 1.0
2 *36:14 *36:15 0.5
3 *36:16 *36:17 0.5
4 *36:18 *37:D 1.0
5 *36:13 *36:15 51.472
6 *36:17 *36:18 1.007162
7 *36:14 *36:16 3.978215

*END

*D_NET *38 0.2463264

*CONN
*I *32:A4 I *L 499.7889 *C 33.104 13.952
*I *39:Y O *L 0.0 *D INVX1_RVT *C 34.624 13.952
*N *38:21 *C 33.104 13.952
*N *38:22 *C 33.104 14.256
*N *38:23 *C 33.104 14.256
*N *38:24 *C 34.624 14.256
*N *38:25 *C 34.624 14.256
*N *38:26 *C 34.624 13.952

*CAP
1 *32:A4 0.0
2 *39:Y 0.0
3 *38:21 0.02686194
4 *38:22 0.04138917
5 *38:23 0.02686194
6 *38:24 0.04138917
7 *38:25 0.02322077
8 *38:26 0.02322077
9 *38:24 *40:32 0.03169132
10 *38:22 *40:35 0.03169132

*RES
1 *38:21 *32:A4 1.0
2 *38:22 *38:23 0.5
3 *38:24 *38:25 0.5
4 *38:26 *39:Y 1.0
5 *38:21 *38:23 0.4781764
6 *38:26 *38:25 0.4781764
7 *38:22 *38:24 2.624131

*END

*D_NET *40 1.555492

*CONN
*I *32:A1 I *L 435.1929 *C 32.8 14.104
*I *39:A I *L 688.1503 *C 34.32 14.104
*P *2 I *C 36.904 0.028
*N *40:30 *C 36.904 13.952
*N *40:31 *C 36.904 13.952
*N *40:32 *C 34.32 13.952
*N *40:33 *C 34.32 13.952
*N *40:34 *C 34.32 14.104
*N *40:35 *C 32.8 13.952
*N *40:36 *C 32.8 13.952
*N *40:37 *C 32.8 14.104

*CAP
1 *32:A1 0.0
2 *39:A 0.0
3 *2 0.5690743
4 *40:30 0.108781
5 *40:31 0.5690743
6 *40:32 0.1432705
7 *40:33 0.0160054
8 *40:34 0.0160054
9 *40:35 0.03448952
10 *40:36 0.01770464
11 *40:37 0.01770464
12 *40:32 *38:24 0.03169132
13 *40:35 *38:22 0.03169132

*RES
1 *40:30 *40:31 0.5
2 *40:32 *40:33 0.5
3 *40:34 *39:A 1.0
4 *40:35 *40:36 0.5
5 *40:37 *32:A1 1.0
6 *40:36 *40:37 0.2068502
7 *40:33 *40:34 0.2068502
8 *2 *40:31 24.76488
9 *40:35 *40:32 2.621091
10 *40:32 *40:30 4.518404

*END

*D_NET *41 2.434817

*CONN
*I *35:A2 I *L 450.7719 *C 31.888 12.28
*I *33:A1 I *L 435.1929 *C 34.32 10.76
*I *42:A I *L 688.1503 *C 32.344 10.76
*P *3 I *C 45.872 0.028
*N *41:42 *C 45.872 0.576
*N *41:43 *C 45.872 0.576
*N *41:44 *C 34.32 0.576
*N *41:45 *C 34.32 0.576
*N *41:46 *C 34.32 10.76
*N *41:47 *C 32.344 10.76
*N *41:48 *C 32.344 11.52
*N *41:49 *C 32.344 11.52
*N *41:50 *C 34.32 11.52
*N *41:51 *C 34.32 11.52
*N *41:52 *C 31.888 12.28
*N *41:53 *C 31.888 11.52
*N *41:54 *C 31.888 11.52

*CAP
1 *35:A2 0.0
2 *33:A1 0.0
3 *42:A 0.0
4 *3 0.02504425
5 *41:42 0.02504425
6 *41:43 0.5308661
7 *41:44 0.4179762
8 *41:45 0.5308661
9 *41:46 0.4585773
10 *41:47 0.04567357
11 *41:48 0.105422
12 *41:49 0.04567357
13 *41:50 0.08333707
14 *41:51 0.04060109
15 *41:52 0.003877603
16 *41:53 0.02208489
17 *41:54 0.003877603
18 *41:52 *45:65 0.04794805
19 *41:54 *45:65 0.04794805

*RES
1 *41:42 *41:43 1.0
2 *41:44 *41:45 1.0
3 *41:46 *33:A1 1.0
4 *41:47 *42:A 1.0
5 *41:48 *41:49 0.5
6 *41:50 *41:51 0.5
7 *41:52 *35:A2 1.0
8 *41:53 *41:54 0.5
9 *41:45 *41:43 23.00537
10 *41:54 *41:52 1.27507
11 *41:47 *41:49 1.27507
12 *41:44 *41:46 18.08679
13 *41:46 *41:51 1.269887
14 *3 *41:42 0.8917252
15 *41:53 *41:48 0.7338625
16 *41:48 *41:50 3.43389

*END

*D_NET *43 0.5625556

*CONN
*I *35:A3 I *L 480.044 *C 32.192 13.192
*I *44:Y O *L 0.0 *D AO22X1_RVT *C 28.088 12.128
*N *43:57 *C 32.192 13.192
*N *43:58 *C 32.192 12.128
*N *43:59 *C 32.192 12.128
*N *43:60 *C 28.088 12.128
*N *43:61 *C 28.088 12.128

*CAP
1 *35:A3 0.0
2 *44:Y 0.01496425
3 *43:57 0.04626795
4 *43:58 0.09419373
5 *43:59 0.04626795
6 *43:60 0.09419373
7 *43:61 0.01496425
8 *43:57 *45:65 0.02962279
9 *43:59 *45:65 0.02962279
10 *43:58 *48:104 0.07706935
11 *43:60 *48:87 0.07706935
12 *43:60 *63:198 0.03831942

*RES
1 *43:57 *35:A3 1.0
2 *43:58 *43:59 0.5
3 *43:60 *43:61 0.5
4 *43:61 *44:Y 1.0
5 *43:59 *43:57 1.813496
6 *43:60 *43:58 7.232459

*END

*D_NET *45 0.6413111

*CONN
*I *35:A4 I *L 499.7889 *C 32.04 12.736
*I *33:A4 I *L 499.7889 *C 34.016 10.608
*I *42:Y O *L 0.0 *D INVX1_RVT *C 32.648 10.608
*N *45:65 *C 32.04 12.736
*N *45:66 *C 32.04 10.0
*N *45:67 *C 32.04 10.0
*N *45:68 *C 34.016 10.608
*N *45:69 *C 34.016 10.0
*N *45:70 *C 34.016 10.0
*N *45:71 *C 32.648 10.608
*N *45:72 *C 32.648 10.0
*N *45:73 *C 32.648 10.0

*CAP
1 *35:A4 0.0
2 *33:A4 0.0
3 *42:Y 0.0
4 *45:65 0.07405402
5 *45:66 0.00814312
6 *45:67 0.07405402
7 *45:68 0.04048944
8 *45:69 0.04558956
9 *45:70 0.04048944
10 *45:71 0.03415577
11 *45:72 0.05373267
12 *45:73 0.03415577
13 *45:65 *41:52 0.04794805
14 *45:65 *41:54 0.04794805
15 *45:65 *43:57 0.02962279
16 *45:65 *43:59 0.02962279
17 *45:69 *1:1296 0.01818091
18 *45:72 *1:1296 0.04065281
19 *45:66 *1:1296 0.0224719

*RES
1 *45:65 *35:A4 1.0
2 *45:66 *45:67 0.5
3 *45:68 *33:A4 1.0
4 *45:69 *45:70 0.5
5 *45:71 *42:Y 1.0
6 *45:72 *45:73 0.5
7 *45:67 *45:65 4.791435
8 *45:73 *45:71 1.007161
9 *45:70 *45:68 1.007162
10 *45:66 *45:72 1.001152
11 *45:72 *45:69 2.350363

*END

*D_NET *46 0.2881907

*CONN
*I *35:A1 I *L 435.1929 *C 31.758 12.584
*I *47:Y O *L 0.0 *D AO22X1_RVT *C 29.608 13.052
*N *46:76 *C 29.912 12.584
*N *46:77 *C 29.912 12.584
*N *46:78 *C 29.912 12.128
*N *46:79 *C 29.912 12.128

*CAP
1 *35:A1 0.09875821
2 *47:Y 0.01838933
3 *46:76 0.02694778
4 *46:77 0.09875821
5 *46:78 0.02694778
6 *46:79 0.01838933

*RES
1 *46:76 *46:77 1.0
2 *46:78 *46:79 1.0
3 *47:Y *46:79 0.6580001
4 *46:77 *35:A1 3.593494
5 *46:78 *46:76 0.7409739

*END

*D_NET *48 3.749931

*CONN
*I *44:A2 I *L 450.7719 *C 27.351 12.28
*I *47:A2 I *L 450.7719 *C 28.848 12.28
*I *49:A2 I *L 450.7719 *C 34.32 12.28
*I *50:A2 I *L 450.7719 *C 37.968 11.064
*I *51:A I *L 688.1503 *C 38.88 10.76
*P *4 I *C 54.84 0.028
*N *48:86 *C 28.848 12.28
*N *48:87 *C 28.848 12.432
*N *48:88 *C 28.848 12.432
*N *48:89 *C 37.968 11.976
*N *48:90 *C 37.968 11.976
*N *48:91 *C 34.928 11.976
*N *48:92 *C 34.928 11.976
*N *48:93 *C 34.928 12.432
*N *48:94 *C 34.928 12.432
*N *48:95 *C 37.968 11.064
*N *48:96 *C 38.88 10.76
*N *48:97 *C 38.88 11.52
*N *48:98 *C 38.88 11.52
*N *48:99 *C 37.968 11.52
*N *48:100 *C 37.968 11.52
*N *48:101 *C 54.84 11.216
*N *48:102 *C 54.84 11.216
*N *48:103 *C 34.32 12.28
*N *48:104 *C 34.32 12.432
*N *48:105 *C 34.32 12.432
*N *48:106 *C 27.48 12.28
*N *48:107 *C 27.48 12.28
*N *48:108 *C 27.48 12.432
*N *48:109 *C 27.48 12.432
*N *48:110 *C 38.88 11.216

*CAP
1 *44:A2 0.009106237
2 *47:A2 0.0
3 *49:A2 0.0
4 *50:A2 0.0
5 *51:A 0.0
6 *4 0.4532604
7 *48:86 0.01991179
8 *48:87 0.05952424
9 *48:88 0.01991179
10 *48:89 0.0301983
11 *48:90 0.1645866
12 *48:91 0.01817209
13 *48:92 0.1645866
14 *48:93 0.01927085
15 *48:94 0.01817209
16 *48:95 0.0302003
17 *48:96 0.04177738
18 *48:97 0.04953855
19 *48:98 0.04177738
20 *48:99 0.03438875
21 *48:100 0.0603986
22 *48:101 0.5471798
23 *48:102 0.4532604
24 *48:103 0.01849868
25 *48:104 0.03574837
26 *48:105 0.01849868
27 *48:106 0.01638363
28 *48:107 0.009106237
29 *48:108 0.0430467
30 *48:109 0.01638363
31 *48:110 0.5623295
32 *48:104 *43:58 0.07706935
33 *48:87 *43:60 0.07706935
34 *48:104 *56:138 0.1852597
35 *48:87 *56:136 0.1812064
36 *48:108 *56:148 0.02247158
37 *48:110 *77:270 0.1053176
38 *48:110 *77:273 0.1053176
39 *48:94 *361:2059 0.02050145
40 *48:91 *361:2059 0.02050145

*RES
1 *48:86 *47:A2 1.0
2 *48:87 *48:88 0.5
3 *48:89 *48:90 1.0
4 *48:91 *48:92 1.0
5 *48:93 *48:94 0.5
6 *48:95 *50:A2 1.0
7 *48:96 *51:A 1.0
8 *48:97 *48:98 0.5
9 *48:99 *48:100 0.5
10 *48:101 *48:102 0.5
11 *48:103 *49:A2 1.0
12 *48:104 *48:105 0.5
13 *44:A2 *48:107 0.1391177
14 *48:106 *48:107 1.0
15 *48:108 *48:109 0.5
16 *48:92 *48:90 5.985001
17 *48:106 *48:109 0.2068502
18 *48:86 *48:88 0.2068502
19 *48:103 *48:105 0.2068502
20 *48:91 *48:94 0.7409739
21 *48:95 *48:100 0.7338625
22 *48:100 *48:89 0.7338625
23 *48:96 *48:98 1.27507
24 *4 *48:102 19.87931
25 *48:108 *48:87 2.350363
26 *48:87 *48:104 9.672441
27 *48:104 *48:93 1.001153
28 *48:99 *48:97 1.538185
29 *48:110 *48:101 28.40087
30 *48:110 *48:97 0.4512909

*END

*D_NET *52 1.885239

*CONN
*I *44:A3 I *L 480.044 *C 27.632 13.192
*I *53:A1 I *L 435.1929 *C 19.097 19.272
*I *54:A3 I *L 480.044 *C 19.424 13.496
*I *55:Q O *L 0.0 *D DFFX1_RVT *C 21.552 17.752
*N *52:115 *C 19.424 13.496
*N *52:116 *C 27.632 13.192
*N *52:117 *C 27.632 13.648
*N *52:118 *C 27.632 13.648
*N *52:119 *C 19.424 13.648
*N *52:120 *C 19.424 13.648
*N *52:121 *C 21.552 17.752
*N *52:122 *C 21.552 18.512
*N *52:123 *C 21.552 18.512
*N *52:124 *C 19.272 18.512
*N *52:125 *C 19.272 18.512
*N *52:126 *C 19.272 19.272
*N *52:127 *C 19.272 19.272
*N *52:128 *C 19.272 13.648
*N *52:129 *C 19.424 13.648

*CAP
1 *44:A3 0.0
2 *53:A1 0.01094721
3 *54:A3 0.0
4 *55:Q 0.0
5 *52:115 0.01698483
6 *52:116 0.03328877
7 *52:117 0.2456927
8 *52:118 0.03328877
9 *52:119 0.2456927
10 *52:120 0.03415703
11 *52:121 0.04390028
12 *52:122 0.04390028
13 *52:123 0.1537573
14 *52:124 0.1390384
15 *52:125 0.1537573
16 *52:126 0.05126454
17 *52:127 0.01094721
18 *52:128 0.09878927
19 *52:129 0.006156787
20 *52:117 *291:1473 0.0412575
21 *52:128 *358:2039 0.06056396
22 *52:128 *358:2038 0.06056396
23 *52:117 *432:2628 0.09621187
24 *52:119 *432:2630 0.09621187
25 *52:120 *457:3308 0.007755918
26 *52:128 *457:3308 0.2011104

*RES
1 *52:115 *54:A3 1.0
2 *52:116 *44:A3 1.0
3 *52:117 *52:118 0.5
4 *52:119 *52:120 0.5
5 *52:121 *55:Q 1.0
6 *52:122 *52:123 1.0
7 *52:124 *52:125 1.0
8 *52:126 *52:127 1.0
9 *53:A1 *52:127 0.2091195
10 *52:125 *52:123 4.466558
11 *52:128 *52:120 0.2067477
12 *52:120 *52:129 1e-07
13 *52:128 *52:124 8.586287
14 *52:124 *52:126 1.269887
15 *52:115 *52:120 0.1934908
16 *52:121 *52:122 1.27507
17 *52:116 *52:118 0.7409739
18 *52:119 *52:117 14.55913

*END

*D_NET *56 1.434154

*CONN
*I *44:A4 I *L 499.7889 *C 27.48 12.736
*I *47:A4 I *L 499.7889 *C 29.0 12.736
*I *49:A4 I *L 499.7889 *C 34.168 12.736
*I *50:A4 I *L 499.7889 *C 37.816 10.608
*I *51:Y O *L 0.0 *D INVX1_RVT *C 38.576 10.608
*N *56:135 *C 29.0 12.736
*N *56:136 *C 29.0 12.736
*N *56:137 *C 34.168 12.736
*N *56:138 *C 34.168 12.736
*N *56:139 *C 37.816 10.608
*N *56:140 *C 38.576 10.608
*N *56:141 *C 38.576 10.304
*N *56:142 *C 38.576 10.304
*N *56:143 *C 37.816 10.304
*N *56:144 *C 37.816 10.304
*N *56:145 *C 37.816 12.736
*N *56:146 *C 37.816 12.736
*N *56:147 *C 27.48 12.736
*N *56:148 *C 27.48 12.736

*CAP
1 *44:A4 0.0
2 *47:A4 0.0
3 *49:A4 0.0
4 *50:A4 0.0
5 *51:Y 0.0
6 *56:135 0.01724174
7 *56:136 0.1175078
8 *56:137 0.01844428
9 *56:138 0.1945685
10 *56:139 0.105688
11 *56:140 0.02098653
12 *56:141 0.03976108
13 *56:142 0.02098653
14 *56:143 0.03976108
15 *56:144 0.02173899
16 *56:145 0.1237022
17 *56:146 0.08394904
18 *56:147 0.01638363
19 *56:148 0.06422757
20 *56:138 *48:104 0.1852597
21 *56:136 *48:87 0.1812064
22 *56:148 *48:108 0.02247158
23 *56:145 *71:245 0.03743809
24 *56:138 *71:251 0.03743809
25 *56:146 *74:261 0.04269639
26 *56:139 *74:259 0.04269639

*RES
1 *56:135 *47:A4 1.0
2 *56:136 *56:135 0.5
3 *56:137 *49:A4 1.0
4 *56:138 *56:137 0.5
5 *56:139 *50:A4 1.0
6 *56:140 *51:Y 1.0
7 *56:141 *56:142 0.5
8 *56:143 *56:144 0.5
9 *56:145 *56:146 0.5
10 *56:147 *44:A4 1.0
11 *56:148 *56:147 0.5
12 *56:144 *56:139 0.4696042
13 *56:139 *56:146 3.704958
14 *56:142 *56:140 0.4781764
15 *56:148 *56:136 2.621091
16 *56:136 *56:138 9.129643
17 *56:138 *56:145 6.41724
18 *56:143 *56:141 1.275069

*END

*D_NET *57 1.339628

*CONN
*I *44:A1 I *L 435.1929 *C 27.176 12.584
*I *54:A1 I *L 435.1929 *C 19.857 14.104
*I *58:A3 I *L 480.044 *C 19.728 16.536
*I *59:Q O *L 0.0 *D DFFX1_RVT *C 20.184 12.28
*N *57:153 *C 20.184 13.952
*N *57:154 *C 20.184 13.952
*N *57:155 *C 19.728 13.952
*N *57:156 *C 19.728 13.952
*N *57:157 *C 19.728 16.536
*N *57:158 *C 20.184 12.28
*N *57:159 *C 19.728 14.104
*N *57:160 *C 19.728 14.104
*N *57:161 *C 20.184 12.432
*N *57:162 *C 20.184 12.432
*N *57:163 *C 27.176 12.432
*N *57:164 *C 27.176 12.432
*N *57:165 *C 27.176 12.584

*CAP
1 *44:A1 0.0
2 *54:A1 0.008787661
3 *58:A3 0.0
4 *59:Q 0.0
5 *57:153 0.02974308
6 *57:154 0.01606755
7 *57:155 0.02974308
8 *57:156 0.01779863
9 *57:157 0.03763225
10 *57:158 0.01406632
11 *57:159 0.05543088
12 *57:160 0.008787661
13 *57:161 0.1921624
14 *57:162 0.03013387
15 *57:163 0.1921624
16 *57:164 0.0168996
17 *57:165 0.0168996
18 *57:159 *60:175 0.1476702
19 *57:163 *253:1209 0.1189705
20 *57:161 *253:1209 0.1189705
21 *57:154 *354:2012 0.07429833
22 *57:162 *354:2016 0.07429833
23 *57:157 *457:3350 0.06955244
24 *57:159 *457:3308 0.06955244

*RES
1 *57:153 *57:154 0.5
2 *57:155 *57:156 0.5
3 *57:157 *58:A3 1.0
4 *57:158 *59:Q 1.0
5 *54:A1 *57:160 0.1391176
6 *57:159 *57:160 1.0
7 *57:161 *57:162 0.5
8 *57:163 *57:164 0.5
9 *57:165 *44:A1 1.0
10 *57:156 *57:159 0.1934908
11 *57:159 *57:157 4.247184
12 *57:158 *57:162 0.1934908
13 *57:162 *57:154 2.621034
14 *57:164 *57:165 0.2068502
15 *57:155 *57:153 0.7409739
16 *57:161 *57:163 12.38803

*END

*D_NET *60 2.118371

*CONN
*I *47:A3 I *L 480.044 *C 29.152 13.192
*I *58:A1 I *L 435.1929 *C 20.184 15.928
*I *61:A3 I *L 480.044 *C 19.88 10.152
*I *62:Q O *L 0.0 *D DFFX1_RVT *C 14.256 14.408
*N *60:170 *C 29.152 13.192
*N *60:171 *C 29.152 14.256
*N *60:172 *C 29.152 14.256
*N *60:173 *C 19.88 10.152
*N *60:174 *C 19.88 14.256
*N *60:175 *C 19.88 14.256
*N *60:176 *C 20.184 14.256
*N *60:177 *C 20.184 14.256
*N *60:178 *C 20.184 15.928
*N *60:179 *C 14.256 14.256
*N *60:180 *C 14.256 14.256
*N *60:181 *C 14.256 14.408

*CAP
1 *47:A3 0.0
2 *58:A1 0.0
3 *61:A3 0.0
4 *62:Q 0.0
5 *60:170 0.05268221
6 *60:171 0.2010857
7 *60:172 0.05268221
8 *60:173 0.005201608
9 *60:174 0.2094334
10 *60:175 0.005201608
11 *60:176 0.2143753
12 *60:177 0.04929106
13 *60:178 0.04929106
14 *60:179 0.1961437
15 *60:180 0.01491328
16 *60:181 0.01491328
17 *60:175 *57:159 0.1476702
18 *60:171 *291:1473 0.07347359
19 *60:171 *299:1514 0.07569438
20 *60:176 *299:1515 0.07569438
21 *60:178 *354:1972 0.0228765
22 *60:177 *354:2012 0.05258034
23 *60:175 *354:2012 0.1142159
24 *60:173 *354:2016 0.1142159
25 *60:174 *358:2037 0.04040143
26 *60:174 *358:2036 0.04040143
27 *60:171 *432:2628 0.09368504
28 *60:176 *432:2630 0.09368504
29 *60:175 *457:3308 0.05428149
30 *60:173 *457:3340 0.05428149

*RES
1 *60:170 *47:A3 1.0
2 *60:171 *60:172 0.5
3 *60:173 *61:A3 1.0
4 *60:174 *60:175 0.5
5 *60:176 *60:177 0.5
6 *60:178 *58:A1 1.0
7 *60:179 *60:180 0.5
8 *60:181 *62:Q 1.0
9 *60:180 *60:181 0.2068502
10 *60:173 *60:175 7.232459
11 *60:177 *60:178 2.894746
12 *60:170 *60:172 1.813496
13 *60:179 *60:174 9.944793
14 *60:174 *60:176 0.4584127
15 *60:176 *60:171 15.91551

*END

*D_NET *63 1.958491

*CONN
*I *47:A1 I *L 435.1929 *C 28.696 12.584
*I *61:A1 I *L 435.1929 *C 20.336 10.76
*I *64:A3 I *L 480.044 *C 26.568 10.152
*I *65:Q O *L 0.0 *D DFFX1_RVT *C 14.256 11.064
*N *63:186 *C 20.336 10.912
*N *63:187 *C 20.336 10.912
*N *63:188 *C 14.256 10.912
*N *63:189 *C 14.256 10.912
*N *63:190 *C 14.256 11.064
*N *63:191 *C 26.568 9.848
*N *63:192 *C 26.568 9.848
*N *63:193 *C 20.336 9.848
*N *63:194 *C 20.336 9.848
*N *63:195 *C 20.336 10.76
*N *63:196 *C 26.568 10.152
*N *63:197 *C 28.696 12.584
*N *63:198 *C 28.696 11.824
*N *63:199 *C 28.696 11.824
*N *63:200 *C 26.568 11.824
*N *63:201 *C 26.568 11.824

*CAP
1 *47:A1 0.0
2 *61:A1 0.0
3 *64:A3 0.0
4 *65:Q 0.0
5 *63:186 0.2222187
6 *63:187 0.01096739
7 *63:188 0.2222187
8 *63:189 0.01462411
9 *63:190 0.01462411
10 *63:191 0.023023
11 *63:192 0.3740133
12 *63:193 0.04547817
13 *63:194 0.3740133
14 *63:195 0.05644556
15 *63:196 0.05771904
16 *63:197 0.04458385
17 *63:198 0.04845811
18 *63:199 0.04458385
19 *63:200 0.04845811
20 *63:201 0.03469604
21 *63:198 *43:60 0.03831942
22 *63:201 *1:1305 0.02583783
23 *63:196 *1:1299 0.02583783
24 *63:201 *1:1304 0.08777767
25 *63:186 *359:2045 0.03753861
26 *63:186 *359:2047 0.03753861
27 *63:198 *360:2054 0.03475781
28 *63:200 *360:2052 0.03475781

*RES
1 *63:186 *63:187 0.5
2 *63:188 *63:189 0.5
3 *63:190 *65:Q 1.0
4 *63:191 *63:192 1.0
5 *63:193 *63:194 1.0
6 *63:195 *61:A1 1.0
7 *63:196 *64:A3 1.0
8 *63:197 *47:A1 1.0
9 *63:198 *63:199 0.5
10 *63:200 *63:201 0.5
11 *63:194 *63:192 12.3665
12 *63:189 *63:190 0.2068502
13 *63:195 *63:187 0.1937255
14 *63:193 *63:195 1.538185
15 *63:191 *63:196 0.4696042
16 *63:196 *63:201 2.89194
17 *63:199 *63:197 1.27507
18 *63:188 *63:186 10.7598
19 *63:200 *63:198 3.707236

*END

*D_NET *66 0.3910501

*CONN
*I *33:A2 I *L 450.7719 *C 34.145 11.064
*I *50:Y O *L 0.0 *D AO22X1_RVT *C 37.208 11.216
*N *66:204 *C 34.624 11.064
*N *66:205 *C 34.624 11.064
*N *66:206 *C 34.624 11.52
*N *66:207 *C 34.624 11.52
*N *66:208 *C 37.208 11.52
*N *66:209 *C 37.208 11.52
*N *66:210 *C 37.208 11.216

*CAP
1 *33:A2 0.02569121
2 *50:Y 0.0
3 *66:204 0.03033506
4 *66:205 0.02569121
5 *66:206 0.08454365
6 *66:207 0.03033506
7 *66:208 0.08454365
8 *66:209 0.02228212
9 *66:210 0.02228212
10 *66:208 *354:1998 0.03267302
11 *66:206 *354:1998 0.03267302

*RES
1 *66:204 *66:205 1.0
2 *66:206 *66:207 0.5
3 *66:208 *66:209 0.5
4 *66:210 *50:Y 1.0
5 *33:A2 *66:205 0.8677928
6 *66:204 *66:207 0.7409739
7 *66:210 *66:209 0.4781763
8 *66:206 *66:208 4.520323

*END

*D_NET *67 0.272657

*CONN
*I *33:A3 I *L 480.044 *C 33.84 10.152
*I *49:Y O *L 0.0 *D AO22X1_RVT *C 33.56 12.128
*N *67:213 *C 33.712 10.152
*N *67:214 *C 33.712 10.152
*N *67:215 *C 33.56 12.128
*N *67:216 *C 33.712 12.128

*CAP
1 *33:A3 0.00940487
2 *49:Y 0.0
3 *67:213 0.07264522
4 *67:214 0.00940487
5 *67:215 0.01805394
6 *67:216 0.09069916
7 *67:216 *68:229 0.03622445
8 *67:213 *68:232 0.03622445

*RES
1 *33:A3 *67:214 0.1380392
2 *67:213 *67:214 1.0
3 *67:215 *49:Y 1.0
4 *67:215 *67:216 0.1976422
5 *67:213 *67:216 3.432603

*END

*D_NET *68 1.280584

*CONN
*I *49:A3 I *L 480.044 *C 33.992 13.192
*I *64:A1 I *L 435.1929 *C 26.134 10.76
*I *69:A3 I *L 480.044 *C 35.512 10.152
*I *70:Q O *L 0.0 *D DFFX1_RVT *C 31.736 11.064
*N *68:221 *C 26.264 10.76
*N *68:222 *C 26.264 10.76
*N *68:223 *C 26.264 10.912
*N *68:224 *C 26.264 10.912
*N *68:225 *C 35.384 10.152
*N *68:226 *C 35.384 10.152
*N *68:227 *C 35.384 10.912
*N *68:228 *C 35.384 10.912
*N *68:229 *C 33.864 13.192
*N *68:230 *C 33.864 13.192
*N *68:231 *C 33.864 10.912
*N *68:232 *C 33.864 10.912
*N *68:233 *C 31.736 10.912
*N *68:234 *C 31.736 10.912
*N *68:235 *C 31.736 11.064

*CAP
1 *49:A3 0.009518116
2 *64:A1 0.008554623
3 *69:A3 0.00940487
4 *70:Q 0.0
5 *68:221 0.02244739
6 *68:222 0.008554623
7 *68:223 0.04118902
8 *68:224 0.02244739
9 *68:225 0.03991139
10 *68:226 0.00940487
11 *68:227 0.07055441
12 *68:228 0.03991139
13 *68:229 0.09217954
14 *68:230 0.009518116
15 *68:231 0.1631847
16 *68:232 0.09217954
17 *68:233 0.1338193
18 *68:234 0.01540934
19 *68:235 0.01540934
20 *68:229 *67:216 0.03622445
21 *68:232 *67:213 0.03622445
22 *68:233 *457:3314 0.2022684
23 *68:223 *457:3312 0.2022684

*RES
1 *64:A1 *68:222 0.1401961
2 *68:221 *68:222 1.0
3 *68:223 *68:224 0.5
4 *69:A3 *68:226 0.1380392
5 *68:225 *68:226 1.0
6 *68:227 *68:228 0.5
7 *49:A3 *68:230 0.1380392
8 *68:229 *68:230 1.0
9 *68:231 *68:232 0.5
10 *68:233 *68:234 0.5
11 *68:235 *70:Q 1.0
12 *68:221 *68:224 0.2068502
13 *68:234 *68:235 0.2068502
14 *68:232 *68:229 3.978216
15 *68:225 *68:228 1.27507
16 *68:223 *68:233 9.673416
17 *68:233 *68:231 3.702564
18 *68:231 *68:227 2.621091

*END

*D_NET *71 0.8586171

*CONN
*I *49:A1 I *L 435.1929 *C 34.472 12.584
*I *69:A1 I *L 435.1929 *C 35.992 10.76
*I *72:A3 I *L 480.044 *C 39.008 13.192
*I *73:Q O *L 0.0 *D DFFX1_RVT *C 38.88 14.408
*N *71:240 *C 35.992 10.76
*N *71:241 *C 35.992 12.128
*N *71:242 *C 35.992 12.128
*N *71:243 *C 38.88 13.192
*N *71:244 *C 38.88 13.192
*N *71:245 *C 38.88 12.432
*N *71:246 *C 38.88 12.432
*N *71:247 *C 38.88 14.408
*N *71:248 *C 34.472 12.584
*N *71:249 *C 34.472 12.128
*N *71:250 *C 34.472 12.128
*N *71:251 *C 35.992 12.432

*CAP
1 *49:A1 0.0
2 *69:A1 0.0
3 *72:A3 0.01047866
4 *73:Q 0.0
5 *71:240 0.07439335
6 *71:241 0.0839652
7 *71:242 0.07439335
8 *71:243 0.09414291
9 *71:244 0.01047866
10 *71:245 0.05957727
11 *71:246 0.03895238
12 *71:247 0.05519053
13 *71:248 0.03406076
14 *71:249 0.06672449
15 *71:250 0.03406076
16 *71:251 0.07681798
17 *71:245 *56:145 0.03743809
18 *71:251 *56:138 0.03743809
19 *71:245 *74:257 0.03525234
20 *71:245 *74:260 0.03525234

*RES
1 *71:240 *69:A1 1.0
2 *71:241 *71:242 0.5
3 *72:A3 *71:244 0.1380392
4 *71:243 *71:244 1.0
5 *71:245 *71:246 0.5
6 *71:247 *73:Q 1.0
7 *71:248 *49:A1 1.0
8 *71:249 *71:250 0.5
9 *71:250 *71:248 0.7409739
10 *71:240 *71:242 2.353679
11 *71:246 *71:243 1.269887
12 *71:243 *71:247 2.079793
13 *71:249 *71:241 2.620285
14 *71:241 *71:251 0.4645067
15 *71:251 *71:245 5.059937

*END

*D_NET *74 0.7236956

*CONN
*I *50:A3 I *L 480.044 *C 37.664 10.152
*I *72:A1 I *L 435.1929 *C 39.488 12.584
*I *75:A3 I *L 480.044 *C 40.552 13.496
*I *76:Q O *L 0.0 *D DFFX1_RVT *C 40.096 12.28
*N *74:256 *C 39.488 12.584
*N *74:257 *C 39.488 12.128
*N *74:258 *C 39.488 12.128
*N *74:259 *C 37.664 10.152
*N *74:260 *C 37.664 12.128
*N *74:261 *C 37.664 12.128
*N *74:262 *C 40.096 12.128
*N *74:263 *C 40.096 12.128
*N *74:264 *C 40.096 12.28
*N *74:265 *C 40.552 13.496
*N *74:266 *C 40.552 12.28

*CAP
1 *50:A3 0.0
2 *72:A1 0.0
3 *75:A3 0.0
4 *76:Q 0.0
5 *74:256 0.03630624
6 *74:257 0.01043813
7 *74:258 0.03630624
8 *74:259 0.07147092