*SPEF "1481-1998"
*DESIGN "sasc_top"
*DATE "Tue May  6 09:31:54 2025"
*VENDOR "Synopsys, Inc."
*PROGRAM "icc_shell"
*VERSION "W-2024.09-SP2"
*DESIGN_FLOW "PIN_CAP NONE"
*DIVIDER /
*DELIMITER :
*BUS_DELIMITER [ ]
*T_UNIT 1 NS
*C_UNIT 1 FF
*R_UNIT 1 OHM
*L_UNIT 1 HENRY

*NAME_MAP
*1 din_i[3]
*2 din_i[2]
*3 din_i[1]
*4 din_i[0]
*5 VDD
*6 VSS
*7 dout_o[3]
*8 dout_o[2]
*9 dout_o[1]
*10 dout_o[0]
*11 din_i[7]
*12 din_i[6]
*13 din_i[5]
*14 din_i[4]
*15 cts_i
*16 rxd_i
*17 rst
*18 clk
*19 dout_o[7]
*20 dout_o[6]
*21 dout_o[5]
*22 dout_o[4]
*23 empty_o
*24 full_o
*25 rts_o
*26 txd_o
*27 we_i
*28 re_i
*29 sio_ce_x4
*30 sio_ce
*31 rx_fifo/n11
*32 rx_fifo/U87
*33 rx_fifo/U86
*34 rx_fifo/mem\[0\]\[7\]
*35 rx_fifo/U44
*36 rx_fifo/mem_reg\[0\]\[7\]
*37 rx_fifo/n13
*38 rx_fifo/U69
*39 rx_fifo/U85
*40 rx_fifo/U83
*41 rx_fifo/U81
*42 rx_fifo/U79
*43 rx_fifo/U77
*44 rx_fifo/U75
*45 rx_fifo/U73
*46 rx_fifo/n14
*47 rx_fifo/U68
*48 rx_fifo/mem\[1\]\[7\]
*49 rx_fifo/U25
*50 rx_fifo/mem_reg\[1\]\[7\]
*51 rx_fifo/n9
*52 rx_fifo/U70
*53 rx_fifo/U84
*54 rx_fifo/U82
*55 rx_fifo/U80
*56 rx_fifo/U78
*57 rx_fifo/U76
*58 rx_fifo/U74
*59 rx_fifo/U72
*60 rx_fifo/mem\[2\]\[7\]
*61 rx_fifo/U37
*62 rx_fifo/mem_reg\[2\]\[7\]
*63 rx_fifo/n8
*64 rx_fifo/U71
*65 rx_fifo/mem\[3\]\[7\]
*66 rx_fifo/U17
*67 rx_fifo/mem_reg\[3\]\[7\]
*68 rx_fifo/n7
*69 rx_fifo/mem\[0\]\[6\]
*70 rx_fifo/U43
*71 rx_fifo/mem_reg\[0\]\[6\]
*72 rx_fifo/mem\[1\]\[6\]
*73 rx_fifo/U24
*74 rx_fifo/mem_reg\[1\]\[6\]
*75 rx_fifo/mem\[2\]\[6\]
*76 rx_fifo/U36
*77 rx_fifo/mem_reg\[2\]\[6\]
*78 rx_fifo/mem\[3\]\[6\]
*79 rx_fifo/U16
*80 rx_fifo/mem_reg\[3\]\[6\]
*81 rx_fifo/n6
*82 rx_fifo/mem\[0\]\[5\]
*83 rx_fifo/U42
*84 rx_fifo/mem_reg\[0\]\[5\]
*85 rx_fifo/mem\[1\]\[5\]
*86 rx_fifo/U23
*87 rx_fifo/mem_reg\[1\]\[5\]
*88 rx_fifo/mem\[2\]\[5\]
*89 rx_fifo/U35
*90 rx_fifo/mem_reg\[2\]\[5\]
*91 rx_fifo/mem\[3\]\[5\]
*92 rx_fifo/U15
*93 rx_fifo/mem_reg\[3\]\[5\]
*94 rx_fifo/n5
*95 rx_fifo/mem\[0\]\[4\]
*96 rx_fifo/U41
*97 rx_fifo/mem_reg\[0\]\[4\]
*98 rx_fifo/mem\[1\]\[4\]
*99 rx_fifo/U22
*100 rx_fifo/mem_reg\[1\]\[4\]
*101 rx_fifo/mem\[2\]\[4\]
*102 rx_fifo/U34
*103 rx_fifo/mem_reg\[2\]\[4\]
*104 rx_fifo/mem\[3\]\[4\]
*105 rx_fifo/U14
*106 rx_fifo/mem_reg\[3\]\[4\]
*107 rx_fifo/n4
*108 rx_fifo/mem\[0\]\[3\]
*109 rx_fifo/U40
*110 rx_fifo/mem_reg\[0\]\[3\]
*111 rx_fifo/mem\[1\]\[3\]
*112 rx_fifo/U21
*113 rx_fifo/mem_reg\[1\]\[3\]
*114 rx_fifo/mem\[2\]\[3\]
*115 rx_fifo/U33
*116 rx_fifo/mem_reg\[2\]\[3\]
*117 rx_fifo/mem\[3\]\[3\]
*118 rx_fifo/U13
*119 rx_fifo/mem_reg\[3\]\[3\]
*120 rx_fifo/n3
*121 rx_fifo/mem\[0\]\[2\]
*122 rx_fifo/U39
*123 rx_fifo/mem_reg\[0\]\[2\]
*124 rx_fifo/mem\[1\]\[2\]
*125 rx_fifo/U20
*126 rx_fifo/mem_reg\[1\]\[2\]
*127 rx_fifo/mem\[2\]\[2\]
*128 rx_fifo/U32
*129 rx_fifo/mem_reg\[2\]\[2\]
*130 rx_fifo/mem\[3\]\[2\]
*131 rx_fifo/U12
*132 rx_fifo/mem_reg\[3\]\[2\]
*133 rx_fifo/n2
*134 rx_fifo/mem\[0\]\[1\]
*135 rx_fifo/U38
*136 rx_fifo/mem_reg\[0\]\[1\]
*137 rx_fifo/mem\[1\]\[1\]
*138 rx_fifo/U19
*139 rx_fifo/mem_reg\[1\]\[1\]
*140 rx_fifo/mem\[2\]\[1\]
*141 rx_fifo/U31
*142 rx_fifo/mem_reg\[2\]\[1\]
*143 rx_fifo/mem\[3\]\[1\]
*144 rx_fifo/U11
*145 rx_fifo/mem_reg\[3\]\[1\]
*146 rx_fifo/n1
*147 rx_fifo/mem\[0\]\[0\]
*148 rx_fifo/U30
*149 rx_fifo/mem_reg\[0\]\[0\]
*150 rx_fifo/mem\[1\]\[0\]
*151 rx_fifo/U18
*152 rx_fifo/mem_reg\[1\]\[0\]
*153 rx_fifo/mem\[2\]\[0\]
*154 rx_fifo/U29
*155 rx_fifo/mem_reg\[2\]\[0\]
*156 rx_fifo/mem\[3\]\[0\]
*157 rx_fifo/U10
*158 rx_fifo/mem_reg\[3\]\[0\]
*159 rx_fifo/N9
*160 rx_fifo/U62
*161 rx_fifo/U54
*162 rx_fifo/U47
*163 rx_fifo/rp_reg\[1\]
*164 rx_fifo/n17
*165 rx_fifo/U63
*166 rx_fifo/U61
*167 rx_fifo/rp_reg\[0\]
*168 rx_fifo/N8
*169 rx_fifo/U60
*170 rx_fifo/U46
*171 rx_fifo/n16
*172 rx_fifo/U64
*173 rx_fifo/n79
*174 rx_fifo/U67
*175 rx_fifo/U57
*176 rx_fifo/U55
*177 rx_fifo/U50
*178 rx_fifo/n122
*179 rx_fifo/U66
*180 rx_fifo/U9
*181 rx_fifo/wp\[1\]
*182 rx_fifo/U65
*183 rx_fifo/U56
*184 rx_fifo/U48
*185 rx_fifo/U27
*186 rx_fifo/wp_reg\[1\]
*187 rx_fifo/n137
*188 rx_fifo/U45
*189 rx_fifo/wp_reg\[0\]
*190 rx_fifo/n130
*191 rx_fifo/n123
*192 rx_fifo/n124
*193 rx_fifo/n84
*194 rx_fifo/n80
*195 rx_fifo/U52
*196 rx_fifo/n121
*197 rx_fifo/n83
*198 rx_fifo/n118
*199 rx_fifo/U59
*200 rx_fifo/U26
*201 rx_fifo/n136
*202 rx_fifo/gb_reg
*203 rx_fifo/n78
*204 rx_fifo/U7
*205 rx_fifo/n119
*206 rx_fifo/U58
*207 rx_fifo/U8
*208 rx_we
*209 rx_fifo/U53
*210 rx_fifo/U28
*211 U106
*212 rx_fifo/n120
*213 rx_fifo/n82
*214 rx_fifo/n18
*215 rx_fifo/wp\[0\]
*216 rx_fifo/n127
*217 rx_fifo/U49
*218 rx_fifo/n81
*219 rx_fifo/n133
*220 rx_fifo/n134
*221 rx_fifo/U51
*222 rx_fifo/n132
*223 rx_fifo/n135
*224 U107
*225 tx_fifo/U12
*226 tx_fifo/U3
*227 tx_fifo/wp_reg\[0\]
*228 tx_fifo/rp_reg\[1\]
*229 tx_fifo/rp_reg\[0\]
*230 tx_fifo/wp_reg\[1\]
*231 U104
*232 U170
*233 dpll_state_reg\[0\]
*234 change_reg
*235 dpll_state_reg\[1\]
*236 U1
*237 rx_fifo/gb
*238 rx_fifo/n117
*239 rx_fifo/n131
*240 rx_fifo/n138
*241 rx_fifo/n125
*242 rx_fifo/U4
*243 rx_fifo/n128
*244 rx_fifo/U3
*245 rxr\[9\]
*246 U123
*247 U122
*248 rxr_reg\[9\]
*249 rx_fifo/n85
*250 rxr\[8\]
*251 U121
*252 rxr_reg\[8\]
*253 rx_fifo/n86
*254 rxr\[7\]
*255 U120
*256 rxr_reg\[7\]
*257 rx_fifo/n87
*258 rxr\[6\]
*259 U119
*260 rxr_reg\[6\]
*261 rx_fifo/n88
*262 rxr\[5\]
*263 U118
*264 rxr_reg\[5\]
*265 rx_fifo/n89
*266 rxr\[4\]
*267 U117
*268 rxr_reg\[4\]
*269 rx_fifo/n90
*270 rxr\[3\]
*271 U116
*272 rxr_reg\[3\]
*273 rx_fifo/n91
*274 rx_fifo/n101
*275 rx_fifo/n102
*276 rx_fifo/n103
*277 rx_fifo/n104
*278 rx_fifo/n105
*279 rx_fifo/n106
*280 rx_fifo/n107
*281 rxr\[2\]
*282 rxr_reg\[2\]
*283 rx_fifo/n92
*284 rx_fifo/n108
*285 rx_fifo/n126
*286 rx_fifo/U2
*287 rx_fifo/n129
*288 rx_fifo/U1
*289 rxf_full
*290 rts_o_reg
*291 rx_fifo/n93
*292 rx_fifo/n94
*293 rx_fifo/n95
*294 rx_fifo/n96
*295 rx_fifo/n97
*296 rx_fifo/n98
*297 rx_fifo/n99
*298 rx_fifo/n100
*299 rx_fifo/n109
*300 rx_fifo/n110
*301 rx_fifo/n111
*302 rx_fifo/n112
*303 rx_fifo/n113
*304 rx_fifo/n114
*305 rx_fifo/n115
*306 rx_fifo/n116
*307 txd_o_reg
*308 tx_bit_cnt_reg\[3\]
*309 tx_bit_cnt_reg\[0\]
*310 tx_bit_cnt_reg\[1\]
*311 hold_reg_reg\[7\]
*312 hold_reg_reg\[8\]
*313 rx_bit_cnt_reg\[3\]
*314 tx_bit_cnt_reg\[2\]
*315 shift_en_r_reg
*316 txf_empty_r_reg
*317 hold_reg_reg\[0\]
*318 hold_reg_reg\[1\]
*319 hold_reg_reg\[2\]
*320 hold_reg_reg\[3\]
*321 hold_reg_reg\[4\]
*322 hold_reg_reg\[5\]
*323 hold_reg_reg\[6\]
*324 rxd_s_reg
*325 rx_bit_cnt_reg\[0\]
*326 rxd_r_reg
*327 rx_bit_cnt_reg\[1\]
*328 rx_bit_cnt_reg\[2\]
*329 rx_go_reg
*330 rx_valid_r_reg
*331 shift_en_reg
*332 load_reg
*333 tx_fifo/mem_reg\[3\]\[7\]
*334 tx_fifo/gb_reg
*335 rx_sio_ce_r2_reg
*336 rx_sio_ce_r1_reg
*337 rx_valid_reg
*338 rx_sio_ce_reg
*339 tx_fifo/mem_reg\[0\]\[7\]
*340 tx_fifo/mem_reg\[3\]\[0\]
*341 tx_fifo/mem_reg\[3\]\[1\]
*342 tx_fifo/mem_reg\[3\]\[2\]
*343 tx_fifo/mem_reg\[3\]\[3\]
*344 tx_fifo/mem_reg\[3\]\[4\]
*345 tx_fifo/mem_reg\[3\]\[5\]
*346 tx_fifo/mem_reg\[3\]\[6\]
*347 tx_fifo/mem_reg\[1\]\[7\]
*348 tx_fifo/mem_reg\[0\]\[0\]
*349 tx_fifo/mem_reg\[0\]\[1\]
*350 tx_fifo/mem_reg\[0\]\[2\]
*351 tx_fifo/mem_reg\[0\]\[3\]
*352 tx_fifo/mem_reg\[0\]\[4\]
*353 tx_fifo/mem_reg\[0\]\[5\]
*354 tx_fifo/mem_reg\[0\]\[6\]
*355 tx_fifo/mem_reg\[2\]\[7\]
*356 tx_fifo/mem_reg\[1\]\[0\]
*357 tx_fifo/mem_reg\[1\]\[1\]
*358 tx_fifo/mem_reg\[1\]\[2\]
*359 tx_fifo/mem_reg\[1\]\[3\]
*360 tx_fifo/mem_reg\[1\]\[4\]
*361 tx_fifo/mem_reg\[1\]\[5\]
*362 tx_fifo/mem_reg\[1\]\[6\]
*363 tx_fifo/mem_reg\[2\]\[0\]
*364 tx_fifo/mem_reg\[2\]\[1\]
*365 tx_fifo/mem_reg\[2\]\[2\]
*366 tx_fifo/mem_reg\[2\]\[3\]
*367 tx_fifo/mem_reg\[2\]\[4\]
*368 tx_fifo/mem_reg\[2\]\[5\]
*369 tx_fifo/mem_reg\[2\]\[6\]
*370 tx_fifo/n11
*371 tx_fifo/U87
*372 tx_fifo/U86
*373 tx_fifo/mem\[0\]\[7\]
*374 tx_fifo/U53
*375 tx_fifo/n16
*376 tx_fifo/U69
*377 tx_fifo/U85
*378 tx_fifo/U83
*379 tx_fifo/U81
*380 tx_fifo/U79
*381 tx_fifo/U77
*382 tx_fifo/U75
*383 tx_fifo/U73
*384 txd_p\[7\]
*385 U127
*386 tx_fifo/n17
*387 tx_fifo/U68
*388 tx_fifo/mem\[1\]\[7\]
*389 tx_fifo/U30
*390 tx_fifo/n9
*391 tx_fifo/U70
*392 tx_fifo/U84
*393 tx_fifo/U82
*394 tx_fifo/U80
*395 tx_fifo/U78
*396 tx_fifo/U76
*397 tx_fifo/U74
*398 tx_fifo/U72
*399 tx_fifo/mem\[2\]\[7\]
*400 tx_fifo/U45
*401 tx_fifo/n8
*402 tx_fifo/U71
*403 tx_fifo/mem\[3\]\[7\]
*404 tx_fifo/U22
*405 tx_fifo/n7
*406 tx_fifo/mem\[0\]\[6\]
*407 tx_fifo/U52
*408 txd_p\[6\]
*409 U135
*410 tx_fifo/mem\[1\]\[6\]
*411 tx_fifo/U29
*412 tx_fifo/mem\[2\]\[6\]
*413 tx_fifo/U44
*414 tx_fifo/mem\[3\]\[6\]
*415 tx_fifo/U21
*416 tx_fifo/n6
*417 tx_fifo/mem\[0\]\[5\]
*418 tx_fifo/U51
*419 txd_p\[5\]
*420 U134
*421 tx_fifo/mem\[1\]\[5\]
*422 tx_fifo/U28
*423 tx_fifo/mem\[2\]\[5\]
*424 tx_fifo/U43
*425 tx_fifo/mem\[3\]\[5\]
*426 tx_fifo/U20
*427 tx_fifo/n5
*428 tx_fifo/mem\[0\]\[4\]
*429 tx_fifo/U50
*430 txd_p\[4\]
*431 U133
*432 tx_fifo/mem\[1\]\[4\]
*433 tx_fifo/U27
*434 tx_fifo/mem\[2\]\[4\]
*435 tx_fifo/U42
*436 tx_fifo/mem\[3\]\[4\]
*437 tx_fifo/U19
*438 tx_fifo/n4
*439 tx_fifo/mem\[0\]\[3\]
*440 tx_fifo/U49
*441 txd_p\[3\]
*442 U132
*443 tx_fifo/mem\[1\]\[3\]
*444 tx_fifo/U26
*445 tx_fifo/mem\[2\]\[3\]
*446 tx_fifo/U41
*447 tx_fifo/mem\[3\]\[3\]
*448 tx_fifo/U18
*449 tx_fifo/n3
*450 tx_fifo/mem\[0\]\[2\]
*451 tx_fifo/U48
*452 txd_p\[2\]
*453 U131
*454 tx_fifo/mem\[1\]\[2\]
*455 tx_fifo/U25
*456 tx_fifo/mem\[2\]\[2\]
*457 tx_fifo/U40
*458 tx_fifo/mem\[3\]\[2\]
*459 tx_fifo/U17
*460 tx_fifo/n2
*461 tx_fifo/mem\[0\]\[1\]
*462 tx_fifo/U47
*463 txd_p\[1\]
*464 U130
*465 tx_fifo/mem\[1\]\[1\]
*466 tx_fifo/U24
*467 tx_fifo/mem\[2\]\[1\]
*468 tx_fifo/U39
*469 tx_fifo/mem\[3\]\[1\]
*470 tx_fifo/U16
*471 tx_fifo/n1
*472 tx_fifo/mem\[0\]\[0\]
*473 tx_fifo/U46
*474 txd_p\[0\]
*475 U129
*476 tx_fifo/mem\[1\]\[0\]
*477 tx_fifo/U23
*478 tx_fifo/mem\[2\]\[0\]
*479 tx_fifo/U38
*480 tx_fifo/mem\[3\]\[0\]
*481 tx_fifo/U15
*482 tx_fifo/N9
*483 tx_fifo/U65
*484 tx_fifo/U35
*485 tx_fifo/U14
*486 tx_fifo/n14
*487 tx_fifo/U36
*488 tx_fifo/U34
*489 tx_fifo/N8
*490 tx_fifo/U64
*491 tx_fifo/U33
*492 tx_fifo/n13
*493 tx_fifo/U37
*494 tx_fifo/n78
*495 tx_fifo/U67
*496 tx_fifo/U62
*497 tx_fifo/U60
*498 tx_fifo/n35
*499 tx_fifo/U66
*500 tx_fifo/U10
*501 tx_fifo/U54
*502 tx_fifo/U32
*503 tx_fifo/U31
*504 tx_fifo/U13
*505 tx_fifo/wp\[1\]
*506 tx_fifo/U63
*507 tx_fifo/U61
*508 tx_fifo/U56
*509 tx_fifo/n36
*510 tx_fifo/U59
*511 tx_fifo/U58
*512 tx_fifo/n12
*513 tx_fifo/n23
*514 tx_fifo/U9
*515 tx_fifo/n24
*516 tx_fifo/n34
*517 tx_fifo/n72
*518 tx_fifo/n79
*519 tx_fifo/wp\[0\]
*520 tx_fifo/n27
*521 tx_fifo/U57
*522 tx_fifo/n73
*523 tx_fifo/gb
*524 tx_fifo/n18
*525 txf_empty
*526 U157
*527 tx_fifo/n15
*528 tx_fifo/n10
*529 tx_fifo/n29
*530 tx_fifo/U5
*531 tx_fifo/n26
*532 tx_fifo/U4
*533 tx_fifo/n32
*534 tx_fifo/U55
*535 tx_fifo/U8
*536 tx_fifo/n69
*537 tx_fifo/n68
*538 tx_fifo/n67
*539 tx_fifo/n66
*540 tx_fifo/n65
*541 tx_fifo/n64
*542 tx_fifo/n63
*543 tx_fifo/n62
*544 tx_fifo/n53
*545 tx_fifo/n75
*546 tx_fifo/U1
*547 tx_fifo/n52
*548 tx_fifo/n51
*549 tx_fifo/n50
*550 tx_fifo/n49
*551 tx_fifo/n48
*552 tx_fifo/n47
*553 tx_fifo/n46
*554 tx_fifo/n31
*555 tx_fifo/n30
*556 tx_fifo/n70
*557 tx_fifo/n80
*558 tx_fifo/n33
*559 tx_fifo/n71
*560 tx_fifo/n28
*561 tx_fifo/U2
*562 tx_fifo/n25
*563 tx_fifo/n61
*564 tx_fifo/n76
*565 tx_fifo/n60
*566 tx_fifo/n59
*567 tx_fifo/n58
*568 tx_fifo/n57
*569 tx_fifo/n56
*570 tx_fifo/n55
*571 tx_fifo/n54
*572 tx_fifo/n45
*573 tx_fifo/n44
*574 tx_fifo/n43
*575 tx_fifo/n42
*576 tx_fifo/n41
*577 tx_fifo/n40
*578 tx_fifo/n39
*579 tx_fifo/n38
*580 tx_fifo/n21
*581 tx_fifo/n20
*582 tx_fifo/U11
*583 tx_fifo/n22
*584 tx_fifo/n19
*585 tx_fifo/n37
*586 n15
*587 U169
*588 n115
*589 U124
*590 U114
*591 U111
*592 U109
*593 U100
*594 U99
*595 n26
*596 U168
*597 U161
*598 U160
*599 n122
*600 U164
*601 n123
*602 U166
*603 U165
*604 U149
*605 n31
*606 U159
*607 U156
*608 U138
*609 U137
*610 U103
*611 n117
*612 U167
*613 n22
*614 U162
*615 n111
*616 n25
*617 n29
*618 U155
*619 n30
*620 n34
*621 n95
*622 tx_bit_cnt\[0\]
*623 n47
*624 U163
*625 U102
*626 U4
*627 U158
*628 U139
*629 U126
*630 U105
*631 n33
*632 U3
*633 shift_en
*634 U147
*635 U136
*636 n21
*637 tx_bit_cnt\[3\]
*638 n92
*639 tx_bit_cnt\[2\]
*640 n113
*641 n93
*642 n118
*643 n90
*644 n18
*645 txf_empty_r
*646 n105
*647 n32
*648 n94
*649 tx_bit_cnt\[1\]
*650 U152
*651 U151
*652 U148
*653 U146
*654 U143
*655 n83
*656 U145
*657 n54
*658 U150
*659 n52
*660 dpll_state\[1\]
*661 U144
*662 n78
*663 dpll_state\[0\]
*664 n65
*665 N123
*666 n85
*667 N19
*668 n121
*669 n49
*670 n50
*671 n77
*672 n106
*673 U142
*674 rx_bit_cnt\[3\]
*675 U141
*676 U112
*677 n109
*678 n107
*679 U115
*680 rx_bit_cnt\[0\]
*681 U110
*682 rx_bit_cnt\[1\]
*683 n108
*684 N128
*685 rxd_s
*686 U140
*687 U108
*688 n63
*689 n79
*690 n81
*691 shift_en_r
*692 n37
*693 U128
*694 n124
*695 n97
*696 n125
*697 n98
*698 n126
*699 n99
*700 n127
*701 n100
*702 n128
*703 n101
*704 n129
*705 n102
*706 n130
*707 n103
*708 n131
*709 n104
*710 n132
*711 n96
*712 load
*713 n64
*714 U125
*715 rx_go
*716 n48
*717 U2
*718 n12
*719 n88
*720 n74
*721 n73
*722 n72
*723 n71
*724 n70
*725 n69
*726 n68
*727 n67
*728 n6
*729 n7
*730 U113
*731 n87
*732 rx_bit_cnt\[2\]
*733 n2
*734 n1
*735 n112
*736 n86
*737 n13
*738 n10
*739 n89
*740 n110
*741 n14
*742 n82
*743 rx_valid_r
*744 n20
*745 n91
*746 n84
*747 rx_sio_ce_r1
*748 n66
*749 rx_valid
*750 n3
*751 n4
*752 n5
*753 n8
*754 rx_fifo/n10
*755 rx_fifo/n12
*756 rx_fifo/n15
*757 rx_fifo/n19
*758 tx_fifo/n81
*759 tx_fifo/n82

*PORTS
*1 I *L 0.0 *S 0.0 0.0
*2 I *L 0.0 *S 0.0 0.0
*3 I *L 0.0 *S 0.0 0.0
*4 I *L 0.0 *S 0.0 0.0
*5 I *L 0.0 *S 0.0 0.0
*6 I *L 0.0 *S 0.0 0.0
*7 O *L 0.0 *S 0.0 0.0
*8 O *L 0.0 *S 0.0 0.0
*9 O *L 0.0 *S 0.0 0.0
*10 O *L 0.0 *S 0.0 0.0
*11 I *L 0.0 *S 0.0 0.0
*12 I *L 0.0 *S 0.0 0.0
*13 I *L 0.0 *S 0.0 0.0
*14 I *L 0.0 *S 0.0 0.0
*15 I *L 0.0 *S 0.0 0.0
*16 I *L 0.0 *S 0.0 0.0
*17 I *L 0.0 *S 0.0 0.0
*18 I *L 0.0 *S 0.0 0.0
*19 O *L 0.0 *S 0.0 0.0
*20 O *L 0.0 *S 0.0 0.0
*21 O *L 0.0 *S 0.0 0.0
*22 O *L 0.0 *S 0.0 0.0
*23 O *L 0.0 *S 0.0 0.0
*24 O *L 0.0 *S 0.0 0.0
*25 O *L 0.0 *S 0.0 0.0
*26 O *L 0.0 *S 0.0 0.0
*27 I *L 0.0 *S 0.0 0.0
*28 I *L 0.0 *S 0.0 0.0
*29 I *L 0.0 *S 0.0 0.0
*30 I *L 0.0 *S 0.0 0.0

*D_NET *31 0.5672168

*CONN
*I *32:A5 I *L 493.3372 *C 50.736 44.2
*I *33:Y O *L 0.0 *D AO22X1_RVT *C 46.936 43.148
*N *31:3 *C 50.736 44.2
*N *31:4 *C 50.736 42.832
*N *31:5 *C 50.736 42.832
*N *31:6 *C 48.0 42.832
*N *31:7 *C 48.0 42.832
*N *31:8 *C 48.0 42.224
*N *31:9 *C 48.0 42.224

*CAP
1 *32:A5 0.0
2 *33:Y 0.0534118
3 *31:3 0.06739188
4 *31:4 0.09590399
5 *31:5 0.06739188
6 *31:6 0.09590399
7 *31:7 0.03720145
8 *31:8 0.03720145
9 *31:9 0.0534118
10 *31:4 *20:262 0.0296993
11 *31:6 *20:262 0.0296993

*RES
1 *31:3 *32:A5 1.0
2 *31:4 *31:5 0.5
3 *31:6 *31:7 0.5
4 *31:8 *31:9 1.0
5 *33:Y *31:9 2.178
6 *31:8 *31:7 1.007162
7 *31:5 *31:3 2.353678
8 *31:6 *31:4 4.791434

*END

*D_NET *34 1.02166

*CONN
*I *32:A1 I *L 451.8021 *C 49.976 44.352
*I *35:A3 I *L 480.044 *C 48.76 43.592
*I *36:Q O *L 0.0 *D DFFX1_RVT *C 53.776 49.064
*N *34:13 *C 49.976 44.352
*N *34:14 *C 49.976 44.352
*N *34:15 *C 48.76 43.592
*N *34:16 *C 48.76 44.352
*N *34:17 *C 48.76 44.352
*N *34:18 *C 53.776 49.064
*N *34:19 *C 53.624 44.352
*N *34:20 *C 53.624 44.352
*N *34:21 *C 53.624 49.064

*CAP
1 *32:A1 0.0
2 *35:A3 0.0
3 *36:Q 0.0
4 *34:13 0.0164675
5 *34:14 0.192096
6 *34:15 0.02915138
7 *34:16 0.05603298
8 *34:17 0.02915138
9 *34:18 0.01168688
10 *34:19 0.1195955
11 *34:20 0.2095964
12 *34:21 0.2212832
13 *34:19 *19:72 0.03772989
14 *34:14 *19:74 0.03772989
15 *34:17 *755:6021 0.03056957
16 *34:15 *755:6019 0.03056957

*RES
1 *34:13 *32:A1 1.0
2 *34:14 *34:13 0.5
3 *34:15 *35:A3 1.0
4 *34:16 *34:17 0.5
5 *34:18 *36:Q 1.0
6 *34:19 *34:20 0.5
7 *34:15 *34:17 1.27507
8 *34:20 *34:21 8.317151
9 *34:21 *34:18 0.1700952
10 *34:16 *34:14 2.079793
11 *34:14 *34:19 6.417239

*END

*D_NET *37 5.464013

*CONN
*I *38:Y O *L 0.0 *D AND2X1_RVT *C 39.184 52.864
*I *32:A4 I *L 494.3008 *C 50.28 44.504
*I *39:A4 I *L 494.3008 *C 50.128 42.376
*I *40:A4 I *L 494.3008 *C 41.464 44.504
*I *41:A4 I *L 494.3008 *C 40.248 39.032
*I *42:A4 I *L 494.3008 *C 48.912 41.16
*I *43:A4 I *L 494.3008 *C 49.52 35.688
*I *44:A4 I *L 494.3008 *C 44.418 39.203
*I *45:A4 I *L 494.3008 *C 48.304 52.408
*N *37:31 *C 50.28 44.504
*N *37:32 *C 50.128 44.656
*N *37:33 *C 50.128 44.656
*N *37:34 *C 50.128 42.376
*N *37:35 *C 50.128 42.376
*N *37:36 *C 41.464 44.504
*N *37:37 *C 41.464 44.96
*N *37:38 *C 41.464 44.96
*N *37:39 *C 43.744 38.88
*N *37:40 *C 43.744 38.88
*N *37:41 *C 43.744 39.032
*N *37:42 *C 43.744 39.032
*N *37:43 *C 40.248 38.88
*N *37:44 *C 40.248 38.88
*N *37:45 *C 40.248 39.032
*N *37:46 *C 49.52 35.688
*N *37:47 *C 50.128 44.656
*N *37:48 *C 50.128 42.376
*N *37:49 *C 39.184 52.864
*N *37:50 *C 39.184 52.56
*N *37:51 *C 39.184 52.56
*N *37:52 *C 49.52 42.376
*N *37:53 *C 49.52 42.376
*N *37:54 *C 49.52 41.008
*N *37:55 *C 49.52 41.008
*N *37:56 *C 48.912 41.008
*N *37:57 *C 48.912 41.008
*N *37:58 *C 48.912 41.16
*N *37:59 *C 41.464 38.88
*N *37:60 *C 41.464 38.88
*N *37:61 *C 48.304 52.408
*N *37:62 *C 48.304 52.56
*N *37:63 *C 48.304 52.56
*N *37:64 *C 48.0 52.56
*N *37:65 *C 48.0 52.56
*N *37:66 *C 48.0 44.96
*N *37:67 *C 48.0 44.96
*N *37:68 *C 50.28 44.656
*N *37:69 *C 50.128 44.96

*CAP
1 *38:Y 0.0
2 *32:A4 0.0
3 *39:A4 0.0
4 *40:A4 0.0
5 *41:A4 0.0
6 *42:A4 0.0
7 *43:A4 0.0
8 *44:A4 0.03853673
9 *45:A4 0.0
10 *37:31 0.01149478
11 *37:32 0.02085952
12 *37:33 0.01632683
13 *37:34 0.02860302
14 *37:35 0.06066699
15 *37:36 0.06833223
16 *37:37 0.2163762
17 *37:38 0.03747283
18 *37:39 0.08869749
19 *37:40 0.02133476
20 *37:41 0.02133476
21 *37:42 0.03853673
22 *37:43 0.044106
23 *37:44 0.02193284
24 *37:45 0.02193284
25 *37:46 0.2202761
26 *37:47 0.09806206
27 *37:48 0.09806206
28 *37:49 0.020775
29 *37:50 0.4558264
30 *37:51 0.020775
31 *37:52 0.03206396
32 *37:53 0.03180928
33 *37:54 0.03556595
34 *37:55 0.2520854
35 *37:56 0.03556595
36 *37:57 0.02628424
37 *37:58 0.02628424
38 *37:59 0.1328035
39 *37:60 0.03085938
40 *37:61 0.02157237
41 *37:62 0.02485013
42 *37:63 0.02157237
43 *37:64 0.4806766
44 *37:65 0.1940591
45 *37:66 0.3078177
46 *37:67 0.1940591
47 *37:68 0.02782161
48 *37:69 0.112301
49 *37:36 *46:91 0.1879476
50 *37:60 *46:112 0.1879476
51 *37:53 *68:241 0.03455212
52 *37:53 *68:240 0.03455212
53 *37:55 *72:271 0.07006335
54 *37:37 *82:322 0.02689749
55 *37:36 *82:324 0.04302571
56 *37:66 *107:453 0.04959149
57 *37:37 *107:455 0.04959149
58 *37:55 *107:448 0.02586932
59 *37:67 *108:461 0.0289563
60 *37:67 *108:463 0.0289563
61 *37:46 *124:543 0.06639321
62 *37:64 *146:648 0.07482079
63 *37:64 *146:646 0.07482079
64 *37:64 *150:672 0.03525105
65 *37:65 *150:673 0.1119543
66 *37:65 *150:679 0.1119543
67 *37:67 *265:1607 0.0699197
68 *37:67 *265:1608 0.0699197
69 *37:65 *283:1773 0.02995323
70 *37:65 *283:1775 0.02995323
71 *37:59 *754:5969 0.01289121
72 *37:59 *754:5965 0.03981852
73 *37:36 *754:5955 0.1550199
74 *37:60 *754:5975 0.1550199

*RES
1 *37:31 *32:A4 1.0
2 *37:32 *37:33 0.5
3 *37:34 *39:A4 1.0
4 *37:35 *37:34 0.5
5 *37:36 *40:A4 1.0
6 *37:37 *37:38 0.5
7 *37:39 *37:40 0.5
8 *37:41 *37:42 1.0
9 *37:43 *37:44 0.5
10 *37:45 *41:A4 1.0
11 *37:46 *43:A4 1.0
12 *37:47 *37:32 0.5
13 *37:48 *37:35 0.5
14 *37:49 *38:Y 1.0
15 *37:50 *37:51 0.5
16 *37:52 *37:53 0.5
17 *37:54 *37:55 0.5
18 *37:56 *37:57 0.5
19 *37:58 *42:A4 1.0
20 *37:59 *37:60 0.5
21 *37:61 *45:A4 1.0
22 *37:62 *37:63 0.5
23 *37:64 *37:65 0.5
24 *37:66 *37:67 0.5
25 *37:42 *44:A4 1.266
26 *37:51 *37:49 0.4781764
27 *37:44 *37:45 0.2068502
28 *37:60 *37:36 9.944794
29 *37:36 *37:38 0.7338625
30 *37:40 *37:41 0.2068502
31 *37:67 *37:65 13.47357
32 *37:61 *37:63 0.2068502
33 *37:57 *37:58 0.2068502
34 *37:46 *37:55 9.402044
35 *37:55 *37:53 2.350363
36 *37:33 *37:68 0.1976422
37 *37:31 *37:68 0.2067477
38 *37:50 *37:64 15.6441
39 *37:64 *37:62 0.4696042
40 *37:43 *37:59 2.079793
41 *37:59 *37:39 3.976071
42 *37:37 *37:66 11.5731
43 *37:66 *37:69 3.703798
44 *37:56 *37:54 1.007161
45 *37:52 *37:35 1.007162
46 *37:32 *37:69 0.4421949
47 *37:48 *37:47 3.978215

*END

*D_NET *19 1.719285

*CONN
*I *32:Y O *L 0.0 *D AO221X1_RVT *C 51.192 44.656
*P *19 O *C 52.864 63.444
*N *19:72 *C 52.864 44.656
*N *19:73 *C 52.864 44.656
*N *19:74 *C 51.192 44.656
*N *19:75 *C 51.192 44.656

*CAP
1 *32:Y 0.01455443
2 *19 0.7637045
3 *19:72 0.04365359
4 *19:73 0.7637045
5 *19:74 0.04365359
6 *19:75 0.01455443
7 *19:72 *34:19 0.03772989
8 *19:74 *34:14 0.03772989

*RES
1 *19:72 *19:73 0.5
2 *19:74 *19:75 0.5
3 *19:75 *32:Y 1.0
4 *19:73 *19 33.45044
5 *19:74 *19:72 2.894746

*END

*D_NET *46 5.369289

*CONN
*I *47:Y O *L 0.0 *D AND2X1_RVT *C 37.968 52.864
*I *32:A2 I *L 471.5846 *C 50.128 44.048
*I *39:A2 I *L 471.5846 *C 50.28 42.832
*I *40:A2 I *L 471.5846 *C 41.616 44.048
*I *41:A2 I *L 471.5846 *C 40.096 39.488
*I *42:A2 I *L 471.5846 *C 48.791 40.704
*I *43:A2 I *L 471.5846 *C 49.672 36.144
*I *44:A2 I *L 471.5846 *C 44.2 39.488
*I *45:A2 I *L 471.5846 *C 48.456 52.864
*N *46:85 *C 50.128 44.048
*N *46:86 *C 50.28 42.832
*N *46:87 *C 41.616 44.048
*N *46:88 *C 49.064 40.704
*N *46:89 *C 49.064 40.704
*N *46:90 *C 41.616 43.744
*N *46:91 *C 41.616 43.744
*N *46:92 *C 48.456 52.864
*N *46:93 *C 48.456 52.864
*N *46:94 *C 49.672 36.144
*N *46:95 *C 49.672 35.84
*N *46:96 *C 49.672 35.84
*N *46:97 *C 48.912 35.84
*N *46:98 *C 48.912 35.84
*N *46:99 *C 48.912 40.704
*N *46:100 *C 48.912 40.704
*N *46:101 *C 48.912 40.704
*N *46:102 *C 50.128 44.048
*N *46:103 *C 37.968 52.864
*N *46:104 *C 37.968 52.864
*N *46:105 *C 49.216 43.744
*N *46:106 *C 49.216 43.744
*N *46:107 *C 49.064 44.048
*N *46:108 *C 49.064 44.048
*N *46:109 *C 48.912 52.864
*N *46:110 *C 48.912 52.864
*N *46:111 *C 41.616 39.792
*N *46:112 *C 41.616 39.792
*N *46:113 *C 40.096 39.488
*N *46:114 *C 40.096 39.792
*N *46:115 *C 40.096 39.792
*N *46:116 *C 44.2 39.488
*N *46:117 *C 44.2 39.792
*N *46:118 *C 44.2 39.792
*N *46:119 *C 49.064 52.864
*N *46:120 *C 49.064 43.744
*N *46:121 *C 50.28 44.048
*N *46:122 *C 49.216 44.048

*CAP
1 *47:Y 0.0
2 *32:A2 0.0
3 *39:A2 0.0
4 *40:A2 0.0
5 *41:A2 0.0
6 *42:A2 0.01756942
7 *43:A2 0.0
8 *44:A2 0.0
9 *45:A2 0.0
10 *46:85 0.02005187
11 *46:86 0.04721263
12 *46:87 0.02591127
13 *46:88 0.07604227
14 *46:89 0.01756942
15 *46:90 0.3015364
16 *46:91 0.1040238
17 *46:92 0.0171681
18 *46:93 0.654876
19 *46:94 0.03097131
20 *46:95 0.04209855
21 *46:96 0.03097131
22 *46:97 0.2055425
23 *46:98 0.04209855
24 *46:99 0.2055425
25 *46:100 0.01589011
26 *46:101 0.03818825
27 *46:102 0.0430637
28 *46:103 0.01476411
29 *46:104 0.6207684
30 *46:105 0.3166957
31 *46:106 0.01398418
32 *46:107 0.007486484
33 *46:108 0.2126637
34 *46:109 0.03170366
35 *46:110 0.01825465
36 *46:111 0.09684348
37 *46:112 0.07811256
38 *46:113 0.02411323
39 *46:114 0.07449639
40 *46:115 0.02411323
41 *46:116 0.03095622
42 *46:117 0.0223471
43 *46:118 0.03095622
44 *46:119 0.2309183
45 *46:120 0.06772832
46 *46:121 0.0672645
47 *46:122 0.0657095
48 *46:91 *37:36 0.1879476
49 *46:112 *37:60 0.1879476
50 *46:121 *48:126 0.0511958
51 *46:108 *48:129 0.03065644
52 *46:108 *48:131 0.03065644
53 *46:117 *134:594 0.09705884
54 *46:111 *134:596 0.09705884
55 *46:119 *249:1439 0.07191049
56 *46:108 *249:1436 0.07191049
57 *46:119 *298:1967 0.1122287
58 *46:119 *298:1968 0.1122287
59 *46:119 *755:6002 0.03769696
60 *46:108 *755:5992 0.06342695
61 *46:108 *755:6020 0.02572999
62 *46:120 *755:6021 0.1027136
63 *46:120 *755:6019 0.1027136

*RES
1 *46:85 *32:A2 1.0
2 *46:86 *39:A2 1.0
3 *46:87 *40:A2 1.0
4 *46:88 *46:89 1.0
5 *46:90 *46:91 0.5
6 *46:92 *45:A2 1.0
7 *46:93 *46:92 0.5
8 *46:94 *43:A2 1.0
9 *46:95 *46:96 0.5
10 *46:97 *46:98 0.5
11 *46:99 *46:100 0.5
12 *46:100 *46:101 0.5
13 *46:102 *46:85 0.5
14 *46:103 *47:Y 1.0
15 *46:104 *46:103 0.5
16 *46:105 *46:106 0.5
17 *46:107 *46:108 0.5
18 *46:109 *46:110 0.5
19 *46:111 *46:112 0.5
20 *46:113 *41:A2 1.0
21 *46:114 *46:115 0.5
22 *46:116 *44:A2 1.0
23 *46:117 *46:118 0.5
24 *42:A2 *46:89 0.4525069
25 *46:113 *46:115 0.4781764
26 *46:112 *46:91 6.959876
27 *46:91 *46:87 0.4696042
28 *46:116 *46:118 0.4781763
29 *46:101 *46:88 0.1855529
30 *46:110 *46:119 0.1976422
31 *46:88 *46:120 5.331261
32 *46:120 *46:106 0.1700953
33 *46:108 *46:119 15.64379
34 *46:96 *46:94 0.4781764
35 *46:85 *46:121 0.1976422
36 *46:86 *46:121 2.077818
37 *46:104 *46:93 18.62962
38 *46:93 *46:109 0.7338625
39 *46:114 *46:111 2.621091
40 *46:111 *46:117 4.518404
41 *46:90 *46:105 13.47269
42 *46:98 *46:95 1.27507
43 *46:107 *46:122 0.2136339
44 *46:122 *46:102 1.539422
45 *46:105 *46:122 0.4512909
46 *46:97 *46:99 8.589014

*END

*D_NET *48 0.8263662

*CONN
*I *32:A3 I *L 459.9452 *C 50.432 43.592
*I *49:A3 I *L 480.044 *C 49.216 46.632
*I *50:Q O *L 0.0 *D DFFX1_RVT *C 53.776 45.72
*N *48:126 *C 50.432 43.592
*N *48:127 *C 50.432 45.872
*N *48:128 *C 50.432 45.872
*N *48:129 *C 49.216 46.632
*N *48:130 *C 49.216 45.872
*N *48:131 *C 49.216 45.872
*N *48:132 *C 53.776 45.72
*N *48:133 *C 53.776 45.872
*N *48:134 *C 53.776 45.872

*CAP
1 *32:A3 0.0
2 *49:A3 0.0
3 *50:Q 0.0
4 *48:126 0.1010644
5 *48:127 0.1715396
6 *48:128 0.1010644
7 *48:129 0.01143161
8 *48:130 0.03310985
9 *48:131 0.01143161
10 *48:132 0.02050786
11 *48:133 0.1384297
12 *48:134 0.02050786
13 *48:126 *46:121 0.0511958
14 *48:129 *46:108 0.03065644
15 *48:131 *46:108 0.03065644
16 *48:129 *249:1436 0.03067004
17 *48:131 *249:1436 0.03067004
18 *48:127 *291:1914 0.02171527
19 *48:130 *291:1912 0.02171527

*RES
1 *48:126 *32:A3 1.0
2 *48:127 *48:128 0.5
3 *48:129 *49:A3 1.0
4 *48:130 *48:131 0.5
5 *48:132 *50:Q 1.0
6 *48:133 *48:134 0.5
7 *48:131 *48:129 1.27507
8 *48:126 *48:128 3.978216
9 *48:132 *48:134 0.2068502
10 *48:130 *48:127 2.079793
11 *48:127 *48:133 5.874642

*END

*D_NET *51 5.102972

*CONN
*I *52:Y O *L 0.0 *D AND2X1_RVT *C 34.32 50.736
*I *33:A2 I *L 450.7719 *C 46.176 42.376
*I *53:A2 I *L 450.7719 *C 46.176 35.688
*I *54:A2 I *L 450.7719 *C 36.752 47.848
*I *55:A2 I *L 450.7719 *C 36.471 39.032
*I *56:A2 I *L 450.7719 *C 43.44 45.72
*I *57:A2 I *L 450.7719 *C 46.632 34.472
*I *58:A2 I *L 450.7719 *C 36.296 37.816
*I *59:A2 I *L 450.7719 *C 43.44 49.064
*N *51:144 *C 46.176 42.376
*N *51:145 *C 46.176 35.688
*N *51:146 *C 36.752 47.848
*N *51:147 *C 36.144 39.032
*N *51:148 *C 36.144 39.032
*N *51:149 *C 43.44 45.72
*N *51:150 *C 36.296 37.816
*N *51:151 *C 43.44 49.064
*N *51:152 *C 36.752 47.696
*N *51:153 *C 36.752 47.696
*N *51:154 *C 36.144 47.696
*N *51:155 *C 36.144 47.696
*N *51:156 *C 46.632 34.472
*N *51:157 *C 46.632 35.84
*N *51:158 *C 46.632 35.84
*N *51:159 *C 46.176 35.84
*N *51:160 *C 46.176 35.84
*N *51:161 *C 36.752 46.176
*N *51:162 *C 36.752 46.176
*N *51:163 *C 43.44 46.176
*N *51:164 *C 43.44 46.176
*N *51:165 *C 34.32 50.736
*N *51:166 *C 34.32 50.736
*N *51:167 *C 36.144 50.736
*N *51:168 *C 36.144 50.736
*N *51:169 *C 46.176 46.176
*N *51:170 *C 46.176 46.176
*N *51:171 *C 36.144 38.576
*N *51:172 *C 36.296 38.576

*CAP
1 *52:Y 0.0
2 *33:A2 0.0
3 *53:A2 0.0
4 *54:A2 0.0
5 *55:A2 0.01960175
6 *56:A2 0.0
7 *57:A2 0.0
8 *58:A2 0.0
9 *59:A2 0.0
10 *51:144 0.2194206
11 *51:145 0.01583165
12 *51:146 0.01584814
13 *51:147 0.1186649
14 *51:148 0.01960175
15 *51:149 0.01958369
16 *51:150 0.04269372
17 *51:151 0.05295435
18 *51:152 0.0405072
19 *51:153 0.02905414
20 *51:154 0.0405072
21 *51:155 0.2294718
22 *51:156 0.06650832
23 *51:157 0.02803284
24 *51:158 0.06650832
25 *51:159 0.02803284
26 *51:160 0.1735357
27 *51:161 0.2314088
28 *51:162 0.013206
29 *51:163 0.3014784
30 *51:164 0.07253806
31 *51:165 0.01459304
32 *51:166 0.09591585
33 *51:167 0.08132282
34 *51:168 0.1345562
35 *51:169 0.07006959
36 *51:170 0.0617165
37 *51:171 0.03610357
38 *51:172 0.05504791
39 *51:158 *63:195 0.01660483
40 *51:156 *63:202 0.01660483
41 *51:170 *63:209 0.05185426
42 *51:144 *63:194 0.428835
43 *51:160 *63:195 0.2875692
44 *51:151 *63:207 0.07013638
45 *51:151 *63:204 0.1255566
46 *51:164 *63:198 0.05542025
47 *51:153 *63:196 0.05990482
48 *51:162 *63:196 0.05990482
49 *51:153 *91:363 0.04255389
50 *51:162 *91:363 0.04255389
51 *51:155 *91:364 0.01373981
52 *51:155 *91:366 0.01373981
53 *51:170 *107:454 0.07155118
54 *51:144 *107:452 0.07155118
55 *51:169 *117:509 0.06561618
56 *51:163 *117:506 0.1457363
57 *51:163 *117:511 0.02323167
58 *51:147 *140:623 0.04614198
59 *51:147 *140:628 0.04614198
60 *51:147 *140:625 0.09780641
61 *51:147 *140:629 0.09780641
62 *51:155 *276:1704 0.1080228
63 *51:147 *280:1733 0.02597776
64 *51:147 *280:1736 0.02597776
65 *51:168 *281:1768 0.07706511
66 *51:155 *281:1768 0.2846654
67 *51:147 *281:1757 0.2076003
68 *51:164 *303:2000 0.01439288
69 *51:149 *303:2000 0.01439288

*RES
1 *51:144 *33:A2 1.0
2 *51:145 *53:A2 1.0
3 *51:146 *54:A2 1.0
4 *51:147 *51:148 1.0
5 *51:149 *56:A2 1.0
6 *51:150 *58:A2 1.0
7 *51:151 *59:A2 1.0
8 *51:152 *51:153 0.5
9 *51:154 *51:155 0.5
10 *51:156 *57:A2 1.0
11 *51:157 *51:158 0.5
12 *51:159 *51:160 0.5
13 *51:161 *51:162 0.5
14 *51:163 *51:164 0.5
15 *51:165 *52:Y 1.0
16 *51:166 *51:165 0.5
17 *51:167 *51:168 0.5
18 *51:169 *51:170 0.5
19 *51:148 *55:A2 0.5677204
20 *51:171 *51:172 0.2138528
21 *51:171 *51:147 0.7200709
22 *51:147 *51:155 15.37207
23 *51:155 *51:168 5.332095
24 *51:150 *51:172 1.266989
25 *51:162 *51:153 2.621091
26 *51:153 *51:146 0.2136339
27 *51:149 *51:164 0.7338625
28 *51:164 *51:151 5.060844
29 *51:145 *51:160 0.1934908
30 *51:160 *51:144 11.57226
31 *51:144 *51:170 6.688553
32 *51:156 *51:158 2.353679
33 *51:166 *51:167 3.165485
34 *51:154 *51:152 0.9974704
35 *51:161 *51:163 11.84449
36 *51:163 *51:169 4.789614
37 *51:159 *51:157 0.7409739

*END

*D_NET *60 0.7957134

*CONN
*I *33:A3 I *L 480.044 *C 46.48 43.288
*I *61:A3 I *L 480.044 *C 45.264 40.248
*I *62:Q O *L 0.0 *D DFFX1_RVT *C 47.696 44.504
*N *60:176 *C 45.264 40.248
*N *60:177 *C 45.264 43.136
*N *60:178 *C 45.264 43.136
*N *60:179 *C 47.696 44.504
*N *60:180 *C 47.696 43.136
*N *60:181 *C 47.696 43.136
*N *60:182 *C 46.48 43.136
*N *60:183 *C 46.48 43.136
*N *60:184 *C 46.48 43.288

*CAP
1 *33:A3 0.0
2 *61:A3 0.0
3 *62:Q 0.0