*SPEF "1481-1998"
*DESIGN "simple_spi_top"
*DATE "Tue May  6 09:32:35 2025"
*VENDOR "Synopsys, Inc."
*PROGRAM "icc_shell"
*VERSION "W-2024.09-SP2"
*DESIGN_FLOW "PIN_CAP NONE"
*DIVIDER /
*DELIMITER :
*BUS_DELIMITER [ ]
*T_UNIT 1 NS
*C_UNIT 1 FF
*R_UNIT 1 OHM
*L_UNIT 1 HENRY

*NAME_MAP
*1 dat_i[1]
*2 dat_i[0]
*3 adr_i[1]
*4 adr_i[0]
*5 VDD
*6 VSS
*7 dat_o[1]
*8 dat_o[0]
*9 dat_i[7]
*10 dat_i[6]
*11 dat_i[5]
*12 dat_i[4]
*13 dat_i[3]
*14 dat_i[2]
*15 rst_i
*16 clk_i
*17 dat_o[7]
*18 dat_o[6]
*19 dat_o[5]
*20 dat_o[4]
*21 dat_o[3]
*22 dat_o[2]
*23 mosi_o
*24 sck_o
*25 inta_o
*26 ack_o
*27 miso_i
*28 we_i
*29 stb_i
*30 cyc_i
*31 sub_237/n18
*32 sub_237/U31
*33 sub_237/U30
*34 sub_237/U18
*35 sub_237/U8
*36 clkcnt\[0\]
*37 sub_237/U19
*38 sub_237/U10
*39 clkcnt_reg\[0\]
*40 U122
*41 clkcnt\[1\]
*42 U230
*43 clkcnt_reg\[1\]
*44 sub_237/n17
*45 sub_237/U29
*46 sub_237/U17
*47 sub_237/U7
*48 clkcnt\[2\]
*49 clkcnt_reg\[2\]
*50 sub_237/n16
*51 sub_237/U28
*52 sub_237/U16
*53 sub_237/U6
*54 clkcnt\[3\]
*55 clkcnt_reg\[3\]
*56 sub_237/n15
*57 sub_237/U27
*58 sub_237/U15
*59 sub_237/U9
*60 clkcnt\[4\]
*61 clkcnt_reg\[4\]
*62 U120
*63 sub_237/n14
*64 sub_237/U26
*65 sub_237/U14
*66 sub_237/U5
*67 clkcnt\[5\]
*68 clkcnt_reg\[5\]
*69 sub_237/n13
*70 sub_237/U25
*71 sub_237/U13
*72 sub_237/U4
*73 clkcnt\[6\]
*74 clkcnt_reg\[6\]
*75 sub_237/n12
*76 sub_237/U24
*77 sub_237/U12
*78 sub_237/U3
*79 clkcnt\[7\]
*80 U233
*81 clkcnt_reg\[7\]
*82 sub_237/n11
*83 sub_237/U23
*84 sub_237/U11
*85 sub_237/U2
*86 clkcnt\[8\]
*87 clkcnt_reg\[8\]
*88 sub_237/n20
*89 sub_237/U21
*90 sub_237/U1
*91 clkcnt\[9\]
*92 clkcnt_reg\[9\]
*93 N92
*94 sub_237/U22
*95 clkcnt_reg\[10\]
*96 sub_237/n1
*97 clkcnt\[10\]
*98 sub_237/n19
*99 sub_237/U20
*100 clkcnt\[11\]
*101 clkcnt_reg\[11\]
*102 N93
*103 N83
*104 sub_237/n9
*105 N84
*106 sub_237/n8
*107 N85
*108 sub_237/n7
*109 N86
*110 sub_237/n6
*111 N87
*112 sub_237/n5
*113 N88
*114 sub_237/n4
*115 N89
*116 sub_237/n3
*117 N90
*118 sub_237/n2
*119 N91
*120 N82
*121 wfifo/n11
*122 wfifo/U87
*123 wfifo/U86
*124 wfifo/mem\[0\]\[8\]
*125 wfifo/U49
*126 wfifo/mem_reg\[0\]\[8\]
*127 wfifo/n13
*128 wfifo/U69
*129 wfifo/U85
*130 wfifo/U83
*131 wfifo/U81
*132 wfifo/U79
*133 wfifo/U77
*134 wfifo/U75
*135 wfifo/U73
*136 wfdout\[7\]
*137 U179
*138 wfifo/n14
*139 wfifo/U68
*140 wfifo/mem\[1\]\[8\]
*141 wfifo/U31
*142 wfifo/mem_reg\[1\]\[8\]
*143 wfifo/n9
*144 wfifo/U70
*145 wfifo/U84
*146 wfifo/U82
*147 wfifo/U80
*148 wfifo/U78
*149 wfifo/U76
*150 wfifo/U74
*151 wfifo/U72
*152 wfifo/mem\[2\]\[8\]
*153 wfifo/U41
*154 wfifo/mem_reg\[2\]\[8\]
*155 wfifo/n8
*156 wfifo/U71
*157 wfifo/mem\[3\]\[8\]
*158 wfifo/U23
*159 wfifo/mem_reg\[3\]\[8\]
*160 wfifo/n7
*161 wfifo/mem\[0\]\[7\]
*162 wfifo/U48
*163 wfifo/mem_reg\[0\]\[7\]
*164 wfdout\[6\]
*165 U182
*166 wfifo/mem\[1\]\[7\]
*167 wfifo/U30
*168 wfifo/mem_reg\[1\]\[7\]
*169 wfifo/mem\[2\]\[7\]
*170 wfifo/U40
*171 wfifo/mem_reg\[2\]\[7\]
*172 wfifo/mem\[3\]\[7\]
*173 wfifo/U22
*174 wfifo/mem_reg\[3\]\[7\]
*175 wfifo/n6
*176 wfifo/mem\[0\]\[6\]
*177 wfifo/U47
*178 wfifo/mem_reg\[0\]\[6\]
*179 wfdout\[5\]
*180 U180
*181 wfifo/mem\[1\]\[6\]
*182 wfifo/U29
*183 wfifo/mem_reg\[1\]\[6\]
*184 wfifo/mem\[2\]\[6\]
*185 wfifo/U39
*186 wfifo/mem_reg\[2\]\[6\]
*187 wfifo/mem\[3\]\[6\]
*188 wfifo/U21
*189 wfifo/mem_reg\[3\]\[6\]
*190 wfifo/n5
*191 wfifo/mem\[0\]\[5\]
*192 wfifo/U46
*193 wfifo/mem_reg\[0\]\[5\]
*194 wfdout\[4\]
*195 U183
*196 wfifo/mem\[1\]\[5\]
*197 wfifo/U28
*198 wfifo/mem_reg\[1\]\[5\]
*199 wfifo/mem\[2\]\[5\]
*200 wfifo/U38
*201 wfifo/mem_reg\[2\]\[5\]
*202 wfifo/mem\[3\]\[5\]
*203 wfifo/U20
*204 wfifo/mem_reg\[3\]\[5\]
*205 wfifo/n4
*206 wfifo/mem\[0\]\[4\]
*207 wfifo/U45
*208 wfifo/mem_reg\[0\]\[4\]
*209 wfdout\[3\]
*210 U181
*211 wfifo/mem\[1\]\[4\]
*212 wfifo/U27
*213 wfifo/mem_reg\[1\]\[4\]
*214 wfifo/mem\[2\]\[4\]
*215 wfifo/U37
*216 wfifo/mem_reg\[2\]\[4\]
*217 wfifo/mem\[3\]\[4\]
*218 wfifo/U19
*219 wfifo/mem_reg\[3\]\[4\]
*220 wfifo/n3
*221 wfifo/mem\[0\]\[3\]
*222 wfifo/U44
*223 wfifo/mem_reg\[0\]\[3\]
*224 wfdout\[2\]
*225 U184
*226 wfifo/mem\[1\]\[3\]
*227 wfifo/U26
*228 wfifo/mem_reg\[1\]\[3\]
*229 wfifo/mem\[2\]\[3\]
*230 wfifo/U36
*231 wfifo/mem_reg\[2\]\[3\]
*232 wfifo/mem\[3\]\[3\]
*233 wfifo/U18
*234 wfifo/mem_reg\[3\]\[3\]
*235 wfifo/n2
*236 wfifo/mem\[0\]\[2\]
*237 wfifo/U43
*238 wfifo/mem_reg\[0\]\[2\]
*239 wfdout\[1\]
*240 U185
*241 wfifo/mem\[1\]\[2\]
*242 wfifo/U25
*243 wfifo/mem_reg\[1\]\[2\]
*244 wfifo/mem\[2\]\[2\]
*245 wfifo/U35
*246 wfifo/mem_reg\[2\]\[2\]
*247 wfifo/mem\[3\]\[2\]
*248 wfifo/U17
*249 wfifo/mem_reg\[3\]\[2\]
*250 wfifo/n1
*251 wfifo/mem\[0\]\[1\]
*252 wfifo/U42
*253 wfifo/mem_reg\[0\]\[1\]
*254 wfdout\[0\]
*255 U186
*256 wfifo/mem\[1\]\[1\]
*257 wfifo/U24
*258 wfifo/mem_reg\[1\]\[1\]
*259 wfifo/mem\[2\]\[1\]
*260 wfifo/U34
*261 wfifo/mem_reg\[2\]\[1\]
*262 wfifo/mem\[3\]\[1\]
*263 wfifo/U16
*264 wfifo/mem_reg\[3\]\[1\]
*265 wfifo/N9
*266 wfifo/U64
*267 wfifo/U55
*268 wfifo/U14
*269 wfifo/rp_reg\[1\]
*270 wfifo/n17
*271 wfifo/U60
*272 wfifo/U56
*273 wfifo/rp_reg\[0\]
*274 wfifo/N8
*275 wfifo/U66
*276 wfifo/U59
*277 wfifo/n16
*278 wfifo/U57
*279 wfifo/wp\[1\]
*280 wfifo/U67
*281 wfifo/U53
*282 wfifo/U51
*283 wfifo/U32
*284 wfifo/wp_reg\[1\]
*285 wfifo/n137
*286 wfifo/U50
*287 wfifo/wp_reg\[0\]
*288 wfifo/n130
*289 wfifo/n131
*290 wfifo/U10
*291 wfifo/U3
*292 wfifo/n118
*293 wfifo/U65
*294 wfifo/U63
*295 spsr\[3\]
*296 U250
*297 U240
*298 wfifo/gb
*299 wfifo/U12
*300 wfifo/gb_reg
*301 wfifo/n18
*302 spsr\[2\]
*303 U242
*304 U162
*305 wfifo/n136
*306 wfifo/n119
*307 wfifo/U62
*308 wfifo/U54
*309 wfifo/U9
*310 n20
*311 U202
*312 U176
*313 spcr_reg\[6\]
*314 wfre_reg
*315 U1
*316 wfifo/U61
*317 rfifo/U62
*318 rfifo/U61
*319 U227
*320 U209
*321 wfwe
*322 wfifo/U33
*323 wfifo/U13
*324 U188
*325 wfifo/n122
*326 wfifo/U8
*327 wfre
*328 wfifo/n121
*329 wfifo/n83
*330 wfifo/n80
*331 wfifo/wp\[0\]
*332 wfifo/U58
*333 wfifo/n127
*334 wfifo/U52
*335 wfifo/n81
*336 wfifo/n78
*337 wfifo/n123
*338 wfifo/n124
*339 wfifo/n84
*340 wfifo/n120
*341 wfifo/n82
*342 wfifo/n138
*343 wfifo/n125
*344 wfifo/U5
*345 wfifo/n128
*346 wfifo/U4
*347 U261
*348 U220
*349 U199
*350 wfifo/n85
*351 U249
*352 U219
*353 U198
*354 wfifo/n86
*355 U218
*356 U197
*357 wfifo/n87
*358 U192
*359 wfifo/n88
*360 U217
*361 U196
*362 wfifo/n89
*363 U216
*364 U195
*365 wfifo/n90
*366 U215
*367 U194
*368 wfifo/n91
*369 U214
*370 U193
*371 wfifo/n92
*372 wfifo/n101
*373 wfifo/n102
*374 wfifo/n103
*375 wfifo/n104
*376 wfifo/n105
*377 wfifo/n106
*378 wfifo/n107
*379 wfifo/n108
*380 wfifo/n126
*381 wfifo/U2
*382 wfifo/n129
*383 wfifo/U1
*384 wfifo/n93
*385 wfifo/n94
*386 wfifo/n95
*387 wfifo/n96
*388 wfifo/n97
*389 wfifo/n98
*390 wfifo/n99
*391 wfifo/n100
*392 wfifo/n109
*393 wfifo/n110
*394 wfifo/n111
*395 wfifo/n112
*396 wfifo/n113
*397 wfifo/n114
*398 wfifo/n115
*399 wfifo/n116
*400 wfifo/n133
*401 wfifo/n134
*402 wfifo/U11
*403 wfifo/n132
*404 wfifo/n135
*405 wfifo/n117
*406 sper_reg\[4\]
*407 spif_reg
*408 wcol_reg
*409 spcr_reg\[7\]
*410 sper_reg\[7\]
*411 sper_reg\[6\]
*412 spcr_reg\[3\]
*413 spcr_reg\[5\]
*414 sper_reg\[5\]
*415 sper_reg\[2\]
*416 sper_reg\[3\]
*417 treg_reg\[7\]
*418 bcnt_reg\[1\]
*419 bcnt_reg\[0\]
*420 tcnt_reg\[0\]
*421 bcnt_reg\[2\]
*422 tcnt_reg\[1\]
*423 sck_o_reg
*424 spcr_reg\[2\]
*425 treg_reg\[6\]
*426 treg_reg\[5\]
*427 treg_reg\[4\]
*428 treg_reg\[3\]
*429 treg_reg\[2\]
*430 treg_reg\[1\]
*431 treg_reg\[0\]
*432 sper_reg\[1\]
*433 spcr_reg\[1\]
*434 sper_reg\[0\]
*435 spcr_reg\[0\]
*436 ack_o_reg
*437 dat_o_reg\[2\]
*438 dat_o_reg\[1\]
*439 dat_o_reg\[0\]
*440 rfwe_reg
*441 state_reg\[1\]
*442 state_reg\[0\]
*443 rfifo/mem_reg\[3\]\[8\]
*444 rfifo/gb_reg
*445 inta_o_reg
*446 dat_o_reg\[7\]
*447 dat_o_reg\[6\]
*448 dat_o_reg\[5\]
*449 dat_o_reg\[4\]
*450 dat_o_reg\[3\]
*451 rfifo/mem_reg\[0\]\[8\]
*452 rfifo/mem_reg\[3\]\[1\]
*453 rfifo/mem_reg\[3\]\[2\]
*454 rfifo/mem_reg\[3\]\[3\]
*455 rfifo/mem_reg\[3\]\[4\]
*456 rfifo/mem_reg\[3\]\[5\]
*457 rfifo/mem_reg\[3\]\[6\]
*458 rfifo/mem_reg\[3\]\[7\]
*459 rfifo/mem_reg\[1\]\[8\]
*460 rfifo/mem_reg\[0\]\[1\]
*461 rfifo/mem_reg\[0\]\[2\]
*462 rfifo/mem_reg\[0\]\[3\]
*463 rfifo/mem_reg\[0\]\[4\]
*464 rfifo/mem_reg\[0\]\[5\]
*465 rfifo/mem_reg\[0\]\[6\]
*466 rfifo/mem_reg\[0\]\[7\]
*467 rfifo/mem_reg\[2\]\[8\]
*468 rfifo/mem_reg\[1\]\[1\]
*469 rfifo/mem_reg\[1\]\[2\]
*470 rfifo/mem_reg\[1\]\[3\]
*471 rfifo/mem_reg\[1\]\[4\]
*472 rfifo/mem_reg\[1\]\[5\]
*473 rfifo/mem_reg\[1\]\[6\]
*474 rfifo/mem_reg\[1\]\[7\]
*475 rfifo/rp_reg\[0\]
*476 rfifo/mem_reg\[2\]\[1\]
*477 rfifo/mem_reg\[2\]\[2\]
*478 rfifo/mem_reg\[2\]\[3\]
*479 rfifo/mem_reg\[2\]\[4\]
*480 rfifo/mem_reg\[2\]\[5\]
*481 rfifo/mem_reg\[2\]\[6\]
*482 rfifo/mem_reg\[2\]\[7\]
*483 rfifo/wp_reg\[0\]
*484 rfifo/wp_reg\[1\]
*485 rfifo/rp_reg\[1\]
*486 rfifo/n11
*487 rfifo/U87
*488 rfifo/U86
*489 rfifo/mem\[0\]\[8\]
*490 rfifo/U35
*491 rfifo/n16
*492 rfifo/U69
*493 rfifo/U85
*494 rfifo/U83
*495 rfifo/U81
*496 rfifo/U79
*497 rfifo/U77
*498 rfifo/U75
*499 rfifo/U73
*500 rfdout\[7\]
*501 U234
*502 rfifo/n17
*503 rfifo/U68
*504 rfifo/mem\[1\]\[8\]
*505 rfifo/U31
*506 rfifo/n9
*507 rfifo/U70
*508 rfifo/U84
*509 rfifo/U82
*510 rfifo/U80
*511 rfifo/U78
*512 rfifo/U76
*513 rfifo/U74
*514 rfifo/U72
*515 rfifo/mem\[2\]\[8\]
*516 rfifo/U34
*517 rfifo/n8
*518 rfifo/U71
*519 rfifo/mem\[3\]\[8\]
*520 rfifo/U23
*521 rfifo/n7
*522 rfifo/mem\[0\]\[7\]
*523 rfifo/U49
*524 rfdout\[6\]
*525 U236
*526 rfifo/mem\[1\]\[7\]
*527 rfifo/U30
*528 rfifo/mem\[2\]\[7\]
*529 rfifo/U42
*530 rfifo/mem\[3\]\[7\]
*531 rfifo/U22
*532 rfifo/n6
*533 rfifo/mem\[0\]\[6\]
*534 rfifo/U48
*535 rfdout\[5\]
*536 U247
*537 rfifo/mem\[1\]\[6\]
*538 rfifo/U29
*539 rfifo/mem\[2\]\[6\]
*540 rfifo/U41
*541 rfifo/mem\[3\]\[6\]
*542 rfifo/U21
*543 rfifo/n5
*544 rfifo/mem\[0\]\[5\]
*545 rfifo/U47
*546 rfdout\[4\]
*547 U238
*548 rfifo/mem\[1\]\[5\]
*549 rfifo/U28
*550 rfifo/mem\[2\]\[5\]
*551 rfifo/U40
*552 rfifo/mem\[3\]\[5\]
*553 rfifo/U20
*554 rfifo/n4
*555 rfifo/mem\[0\]\[4\]
*556 rfifo/U46
*557 rfdout\[3\]
*558 U239
*559 rfifo/mem\[1\]\[4\]
*560 rfifo/U27
*561 rfifo/mem\[2\]\[4\]
*562 rfifo/U39
*563 rfifo/mem\[3\]\[4\]
*564 rfifo/U19
*565 rfifo/n3
*566 rfifo/mem\[0\]\[3\]
*567 rfifo/U45
*568 rfdout\[2\]
*569 U241
*570 rfifo/mem\[1\]\[3\]
*571 rfifo/U26
*572 rfifo/mem\[2\]\[3\]
*573 rfifo/U38
*574 rfifo/mem\[3\]\[3\]
*575 rfifo/U18
*576 rfifo/n2
*577 rfifo/mem\[0\]\[2\]
*578 rfifo/U44
*579 rfdout\[1\]
*580 U243
*581 rfifo/mem\[1\]\[2\]
*582 rfifo/U25
*583 rfifo/mem\[2\]\[2\]
*584 rfifo/U37
*585 rfifo/mem\[3\]\[2\]
*586 rfifo/U17
*587 rfifo/n1
*588 rfifo/mem\[0\]\[1\]
*589 rfifo/U43
*590 rfdout\[0\]
*591 U245
*592 rfifo/mem\[1\]\[1\]
*593 rfifo/U24
*594 rfifo/mem\[2\]\[1\]
*595 rfifo/U36
*596 rfifo/mem\[3\]\[1\]
*597 rfifo/U16
*598 rfifo/N9
*599 rfifo/U65
*600 rfifo/U55
*601 rfifo/U14
*602 rfifo/n14
*603 rfifo/U60
*604 rfifo/U56
*605 rfifo/N8
*606 rfifo/U67
*607 rfifo/U59
*608 rfifo/n13
*609 rfifo/U57
*610 rfifo/n12
*611 rfifo/U66
*612 rfifo/U50
*613 rfifo/n23
*614 rfifo/U10
*615 rfifo/U3
*616 rfifo/wp\[1\]
*617 rfifo/U53
*618 rfifo/U51
*619 rfifo/U32
*620 rfifo/n24
*621 rfifo/n36
*622 rfifo/U64
*623 rfifo/U63
*624 spsr\[0\]
*625 U246
*626 rfifo/n15
*627 rfifo/n18
*628 spsr\[1\]
*629 U244
*630 rfifo/gb
*631 rfifo/U12
*632 rfifo/n35
*633 rfifo/U54
*634 rfifo/U9
*635 rfwe
*636 rfifo/U33
*637 rfifo/U13
*638 U262
*639 rfifo/n32
*640 rfifo/U8
*641 rfre
*642 U225
*643 rfifo/n33
*644 rfifo/n79
*645 rfifo/U2
*646 rfifo/n71
*647 rfifo/n78
*648 rfifo/wp\[0\]
*649 rfifo/U58
*650 rfifo/n27
*651 rfifo/U52
*652 rfifo/n73
*653 rfifo/n80
*654 rfifo/n31
*655 rfifo/n30
*656 rfifo/n70
*657 rfifo/n34
*658 rfifo/n72
*659 rfifo/n10
*660 rfifo/n29
*661 rfifo/U5
*662 rfifo/n26
*663 rfifo/U4
*664 treg\[6\]
*665 rfifo/n68
*666 treg\[5\]
*667 rfifo/n67
*668 treg\[4\]
*669 rfifo/n66
*670 treg\[3\]
*671 rfifo/n65
*672 treg\[2\]
*673 rfifo/n64
*674 treg\[1\]
*675 rfifo/n63
*676 treg\[0\]
*677 rfifo/n62
*678 rfifo/n52
*679 rfifo/n51
*680 rfifo/n50
*681 rfifo/n49
*682 rfifo/n48
*683 rfifo/n47
*684 rfifo/n46
*685 rfifo/n69
*686 rfifo/n53
*687 rfifo/n28
*688 rfifo/n25
*689 rfifo/U1
*690 rfifo/n61
*691 rfifo/n60
*692 rfifo/n59
*693 rfifo/n58
*694 rfifo/n57
*695 rfifo/n56
*696 rfifo/n55
*697 rfifo/n54
*698 rfifo/n77
*699 rfifo/n45
*700 rfifo/n44
*701 rfifo/n43
*702 rfifo/n42
*703 rfifo/n41
*704 rfifo/n40
*705 rfifo/n39
*706 rfifo/n38
*707 rfifo/n21
*708 rfifo/n20
*709 rfifo/U11
*710 rfifo/n22
*711 rfifo/n19
*712 rfifo/n37
*713 N73
*714 U267
*715 n42
*716 U200
*717 U191
*718 n23
*719 bcnt\[1\]
*720 U266
*721 U175
*722 U173
*723 U172
*724 bcnt\[0\]
*725 U187
*726 U177
*727 n72
*728 U169
*729 U166
*730 bcnt\[2\]
*731 U174
*732 n147
*733 U265
*734 U204
*735 U157
*736 U190
*737 U189
*738 n81
*739 U260
*740 U164
*741 n30
*742 U264
*743 U231
*744 U228
*745 state\[0\]
*746 U205
*747 n68
*748 U168
*749 n48
*750 U263
*751 U203
*752 U170
*753 tcnt\[0\]
*754 U210
*755 U201
*756 tcnt\[1\]
*757 U208
*758 n80
*759 n159
*760 n77
*761 U161
*762 U154
*763 n82
*764 spsr_7
*765 U235
*766 spcr\[6\]
*767 U159
*768 U158
*769 U151
*770 U147
*771 U248
*772 U237
*773 U232
*774 U222
*775 U212
*776 U167
*777 N76
*778 n99
*779 U259
*780 spcr\[1\]
*781 U257
*782 U255
*783 n98
*784 U258
*785 sper\[0\]
*786 U256
*787 U251
*788 n97
*789 U163
*790 n92
*791 U165
*792 spcr\[0\]
*793 n94
*794 sper\[1\]
*795 n95
*796 n143
*797 U254
*798 U206
*799 spcr\[2\]
*800 n57
*801 U253
*802 n56
*803 U142
*804 n155
*805 U213
*806 U155
*807 U153
*808 U143
*809 n55
*810 U252
*811 n157
*812 n32
*813 U224
*814 spcr\[3\]
*815 n52
*816 n54
*817 n96
*818 n22
*819 n79
*820 spsr_6
*821 n78
*822 n146
*823 N78
*824 spcr\[5\]
*825 n84
*826 sper\[5\]
*827 n137
*828 U144
*829 N69
*830 n76
*831 n89
*832 N64
*833 n88
*834 N65
*835 n87
*836 sper\[2\]
*837 N66
*838 n86
*839 sper\[3\]
*840 N67
*841 sper\[4\]
*842 N68
*843 n85
*844 N70
*845 sper\[6\]
*846 n83
*847 spcr\[7\]
*848 N71
*849 sper\[7\]
*850 n102
*851 n67
*852 U211
*853 n69
*854 n118
*855 n103
*856 n101
*857 U229
*858 n100
*859 n90
*860 U156
*861 n31
*862 U207
*863 n91
*864 n49
*865 U160
*866 U226
*867 n149
*868 n53
*869 N185
*870 n51
*871 U223
*872 U221
*873 U150
*874 n151
*875 n50
*876 n106
*877 n126
*878 n74
*879 U3
*880 n125
*881 n124
*882 n123
*883 n122
*884 n121
*885 n120
*886 n139
*887 n138
*888 n119
*889 n43
*890 n45
*891 n152
*892 n44
*893 n104
*894 state\[1\]
*895 n73
*896 n66
*897 n156
*898 n158
*899 n47
*900 n34
*901 n46
*902 n105
*903 n134
*904 n75
*905 U2
*906 n133
*907 n132
*908 n130
*909 n129
*910 n128
*911 n127
*912 n131
*913 n148
*914 n136
*915 n135
*916 n116
*917 n27
*918 n114
*919 n113
*920 n112
*921 n110
*922 n108
*923 n111
*924 n109
*925 n107
*926 n63
*927 n62
*928 n61
*929 n115
*930 n64
*931 n117
*932 n154
*933 n93
*934 U4
*935 n58
*936 U5
*937 n65
*938 n14
*939 n15
*940 n1
*941 n2
*942 n3
*943 n4
*944 n5
*945 wfifo/n19
*946 wfifo/n20
*947 wfifo/n21
*948 wfifo/n22
*949 rfifo/n81
*950 rfifo/n82

*PORTS
*1 I *L 0.0 *S 0.0 0.0
*2 I *L 0.0 *S 0.0 0.0
*3 I *L 0.0 *S 0.0 0.0
*4 I *L 0.0 *S 0.0 0.0
*5 I *L 0.0 *S 0.0 0.0
*6 I *L 0.0 *S 0.0 0.0
*7 O *L 0.0 *S 0.0 0.0
*8 O *L 0.0 *S 0.0 0.0
*9 I *L 0.0 *S 0.0 0.0
*10 I *L 0.0 *S 0.0 0.0
*11 I *L 0.0 *S 0.0 0.0
*12 I *L 0.0 *S 0.0 0.0
*13 I *L 0.0 *S 0.0 0.0
*14 I *L 0.0 *S 0.0 0.0
*15 I *L 0.0 *S 0.0 0.0
*16 I *L 0.0 *S 0.0 0.0
*17 O *L 0.0 *S 0.0 0.0
*18 O *L 0.0 *S 0.0 0.0
*19 O *L 0.0 *S 0.0 0.0
*20 O *L 0.0 *S 0.0 0.0
*21 O *L 0.0 *S 0.0 0.0
*22 O *L 0.0 *S 0.0 0.0
*23 O *L 0.0 *S 0.0 0.0
*24 O *L 0.0 *S 0.0 0.0
*25 O *L 0.0 *S 0.0 0.0
*26 O *L 0.0 *S 0.0 0.0
*27 I *L 0.0 *S 0.0 0.0
*28 I *L 0.0 *S 0.0 0.0
*29 I *L 0.0 *S 0.0 0.0
*30 I *L 0.0 *S 0.0 0.0

*D_NET *31 0.5924874

*CONN
*I *32:Y O *L 0.0 *D OR2X1_RVT *C 49.824 57.272
*I *33:A1 I *L 549.6215 *C 52.94 57.565
*I *34:A2 I *L 442.1154 *C 52.287 56.056
*I *35:A I *L 688.1503 *C 50.432 57.576
*N *31:5 *C 52.712 57.728
*N *31:6 *C 52.712 57.728
*N *31:7 *C 52.712 56.056
*N *31:8 *C 52.712 56.056
*N *31:9 *C 52.712 57.424
*N *31:10 *C 52.712 57.424
*N *31:11 *C 49.824 57.272
*N *31:12 *C 49.824 57.424
*N *31:13 *C 49.824 57.424
*N *31:14 *C 50.432 57.424
*N *31:15 *C 50.432 57.424
*N *31:16 *C 50.432 57.576

*CAP
1 *32:Y 0.0
2 *33:A1 0.01266709
3 *34:A2 0.02851683
4 *35:A 0.0
5 *31:5 0.02028912
6 *31:6 0.01266709
7 *31:7 0.01847282
8 *31:8 0.02851683
9 *31:9 0.09852991
10 *31:10 0.03876194
11 *31:11 0.01273663
12 *31:12 0.01419036
13 *31:13 0.01273663
14 *31:14 0.1127203
15 *31:15 0.01489351
16 *31:16 0.01489351
17 *31:14 *104:391 0.01452778
18 *31:12 *104:389 0.01452778
19 *31:11 *104:390 0.01158258
20 *31:10 *106:406 0.05562836
21 *31:7 *106:403 0.05562836

*RES
1 *31:5 *31:6 1.0
2 *31:7 *31:8 1.0
3 *31:9 *31:10 0.5
4 *31:11 *32:Y 1.0
5 *31:12 *31:13 0.5
6 *31:14 *31:15 0.5
7 *31:16 *35:A 1.0
8 *34:A2 *31:8 0.7542794
9 *31:6 *33:A1 0.3233334
10 *31:11 *31:13 0.2068502
11 *31:15 *31:16 0.2068502
12 *31:7 *31:10 2.350363
13 *31:10 *31:5 0.4696042
14 *31:12 *31:14 1.001152
15 *31:14 *31:9 3.976071

*END

*D_NET *36 2.164868

*CONN
*I *32:A2 I *L 610.4156 *C 49.368 57.551
*I *37:A2 I *L 442.1154 *C 50.128 54.232
*I *38:A I *L 688.1503 *C 52.561 50.89
*I *39:Q O *L 0.0 *D SDFFSSRX1_RVT *C 52.712 49.93
*I *40:A2 I *L 502.3494 *C 53.624 42.528
*N *36:22 *C 52.104 50.888
*N *36:23 *C 52.104 50.888
*N *36:24 *C 52.104 50.432
*N *36:25 *C 52.104 50.432
*N *36:26 *C 53.168 49.064
*N *36:27 *C 53.168 49.064
*N *36:28 *C 53.624 42.528
*N *36:29 *C 53.624 42.528
*N *36:30 *C 52.864 42.528
*N *36:31 *C 52.864 42.528
*N *36:32 *C 51.496 54.232
*N *36:33 *C 51.496 54.232
*N *36:34 *C 51.496 50.432
*N *36:35 *C 51.496 50.432
*N *36:36 *C 52.864 50.432
*N *36:37 *C 52.864 50.432
*N *36:38 *C 50.128 54.232
*N *36:39 *C 50.128 54.384
*N *36:40 *C 50.128 54.384
*N *36:41 *C 49.368 54.384
*N *36:42 *C 49.368 54.384
*N *36:43 *C 49.368 57.551
*N *36:44 *C 52.864 48.912
*N *36:45 *C 53.168 48.912

*CAP
1 *32:A2 0.0
2 *37:A2 0.1021112
3 *38:A 0.03902984
4 *39:Q 0.02077496
5 *40:A2 0.0
6 *36:22 0.026904
7 *36:23 0.03902984
8 *36:24 0.04355428
9 *36:25 0.026904
10 *36:26 0.006154233
11 *36:27 0.02077496
12 *36:28 0.01551677
13 *36:29 0.05349252
14 *36:30 0.03797575
15 *36:31 0.2398276
16 *36:32 0.1681589
17 *36:33 0.1021112
18 *36:34 0.03102711
19 *36:35 0.1681589
20 *36:36 0.01252717
21 *36:37 0.07179953
22 *36:38 0.01504084
23 *36:39 0.03818594
24 *36:40 0.01504084
25 *36:41 0.03818594
26 *36:42 0.1024069
27 *36:43 0.1024069
28 *36:44 0.3280427
29 *36:45 0.02256991
30 *36:31 *93:321 0.06739324
31 *36:31 *93:319 0.06739324
32 *36:43 *104:390 0.04599946
33 *36:42 *104:388 0.04599946
34 *36:36 *120:516 0.02518472
35 *36:24 *120:516 0.02518472

*RES
1 *36:22 *36:23 1.0
2 *36:24 *36:25 0.5
3 *36:26 *36:27 1.0
4 *36:28 *40:A2 1.0
5 *36:29 *36:28 0.5
6 *36:30 *36:31 0.5
7 *36:32 *36:33 1.0
8 *36:34 *36:35 0.5
9 *36:36 *36:37 0.5
10 *36:38 *37:A2 1.0
11 *36:39 *36:40 0.5
12 *36:41 *36:42 0.5
13 *36:43 *32:A2 0.5
14 *37:A2 *36:33 2.642173
15 *36:23 *38:A 0.9139001
16 *39:Q *36:27 0.6580001
17 *36:42 *36:43 5.561046
18 *36:38 *36:40 0.2068502
19 *36:35 *36:32 6.6899
20 *36:25 *36:22 0.7409739
21 *36:31 *36:44 11.30171
22 *36:44 *36:37 2.621091
23 *36:44 *36:45 0.4584127
24 *36:45 *36:26 0.2067477
25 *36:41 *36:39 1.27507
26 *36:34 *36:24 1.001152
27 *36:24 *36:36 1.269887
28 *36:30 *36:29 1.27507

*END

*D_NET *41 1.467979

*CONN
*I *32:A1 I *L 549.6215 *C 49.14 57.565
*I *37:A1 I *L 463.7024 *C 49.824 54.384
*I *42:A3 I *L 541.8121 *C 54.232 56.208
*I *43:Q O *L 0.0 *D SDFFSSRX1_RVT *C 51.8 52.408
*N *41:50 *C 48.456 57.728
*N *41:51 *C 48.456 57.728
*N *41:52 *C 48.456 54.992
*N *41:53 *C 48.456 54.992
*N *41:54 *C 49.824 54.992
*N *41:55 *C 49.824 54.992
*N *41:56 *C 49.824 54.384
*N *41:57 *C 54.232 56.208
*N *41:58 *C 54.232 55.6
*N *41:59 *C 54.232 55.6
*N *41:60 *C 51.04 55.6
*N *41:61 *C 51.04 55.6
*N *41:62 *C 51.8 52.408
*N *41:63 *C 51.8 53.168
*N *41:64 *C 51.8 53.168
*N *41:65 *C 51.04 53.168
*N *41:66 *C 51.04 53.168
*N *41:67 *C 51.04 54.384
*N *41:68 *C 51.04 54.384

*CAP
1 *32:A1 0.04625998
2 *37:A1 0.06954751
3 *42:A3 0.0
4 *43:Q 0.0
5 *41:50 0.1243551
6 *41:51 0.04625998
7 *41:52 0.06236017
8 *41:53 0.1243551
9 *41:54 0.06236017
10 *41:55 0.02198913
11 *41:56 0.02198913
12 *41:57 0.03658484
13 *41:58 0.09583488
14 *41:59 0.03658484
15 *41:60 0.09583488
16 *41:61 0.05405748
17 *41:62 0.05184859
18 *41:63 0.04167727
19 *41:64 0.05184859
20 *41:65 0.04167727
21 *41:66 0.05417984
22 *41:67 0.1082373
23 *41:68 0.06954751
24 *41:55 *104:388 0.02554065
25 *41:56 *104:388 0.02554065
26 *41:58 *105:397 0.04975381
27 *41:60 *105:397 0.04975381

*RES
1 *41:50 *41:51 1.0
2 *41:52 *41:53 0.5
3 *41:54 *41:55 0.5
4 *41:56 *37:A1 1.0
5 *41:57 *42:A3 1.0
6 *41:58 *41:59 0.5
7 *41:60 *41:61 0.5
8 *41:62 *43:Q 1.0
9 *41:63 *41:64 0.5
10 *41:65 *41:66 0.5
11 *41:67 *41:68 1.0
12 *41:51 *32:A1 1.266
13 *37:A1 *41:68 2.33433
14 *41:53 *41:50 4.791435
15 *41:56 *41:55 1.007161
16 *41:66 *41:67 2.079793
17 *41:67 *41:61 2.079793
18 *41:62 *41:64 1.27507
19 *41:59 *41:57 1.007161
20 *41:52 *41:54 2.353679
21 *41:65 *41:63 1.27507
22 *41:60 *41:58 5.604944

*END

*D_NET *44 0.7625622

*CONN
*I *33:Y O *L 0.0 *D OR2X1_RVT *C 53.624 57.272
*I *45:A1 I *L 549.6215 *C 57.956 54.221
*I *46:A2 I *L 442.1154 *C 56.208 56.056
*I *47:A I *L 688.1503 *C 54.232 57.576
*N *44:73 *C 53.624 57.12
*N *44:74 *C 53.624 57.12
*N *44:75 *C 53.624 57.272
*N *44:76 *C 56.208 56.056
*N *44:77 *C 54.232 57.576
*N *44:78 *C 54.232 57.12
*N *44:79 *C 54.232 57.12
*N *44:80 *C 56.208 57.12
*N *44:81 *C 56.208 57.12
*N *44:82 *C 56.208 56.208
*N *44:83 *C 56.208 56.208
*N *44:84 *C 57.728 56.208
*N *44:85 *C 57.728 56.208
*N *44:86 *C 57.728 54.384
*N *44:87 *C 57.728 54.384

*CAP
1 *33:Y 0.0
2 *45:A1 0.01459376
3 *46:A2 0.0
4 *47:A 0.0
5 *44:73 0.03049645
6 *44:74 0.01486895
7 *44:75 0.01486895
8 *44:76 0.009796785
9 *44:77 0.03009118
10 *44:78 0.07219686
11 *44:79 0.03009118
12 *44:80 0.04170041
13 *44:81 0.04121105
14 *44:82 0.07069986
15 *44:83 0.05100783
16 *44:84 0.07069986
17 *44:85 0.08295549
18 *44:86 0.08295549
19 *44:87 0.01459376
20 *44:78 *842:6210 0.08973435

*RES
1 *44:73 *44:74 0.5
2 *44:75 *33:Y 1.0
3 *44:76 *46:A2 1.0
4 *44:77 *47:A 1.0
5 *44:78 *44:79 0.5
6 *44:80 *44:81 0.5
7 *44:82 *44:83 0.5
8 *44:84 *44:85 0.5
9 *44:86 *44:87 1.0
10 *44:87 *45:A1 0.3233334
11 *44:74 *44:75 0.2068502
12 *44:79 *44:77 0.7409739
13 *44:76 *44:83 0.1934908
14 *44:83 *44:81 1.539335
15 *44:86 *44:85 3.165485
16 *44:73 *44:78 1.001153
17 *44:78 *44:80 3.43389
18 *44:82 *44:84 2.624132

*END

*D_NET *48 0.6181243

*CONN
*I *33:A2 I *L 610.4156 *C 53.168 57.551
*I *34:A1 I *L 463.7024 *C 52.529 55.904
*I *42:A2 I *L 511.8402 *C 54.384 55.904
*I *49:Q O *L 0.0 *D SDFFSSRX1_RVT *C 51.8 55.752
*N *48:92 *C 53.168 57.551
*N *48:93 *C 53.168 56.208
*N *48:94 *C 53.168 56.208
*N *48:95 *C 54.384 55.904
*N *48:96 *C 54.384 56.208
*N *48:97 *C 54.384 56.208
*N *48:98 *C 51.8 55.752
*N *48:99 *C 51.952 56.208
*N *48:100 *C 51.952 56.208
*N *48:101 *C 51.952 55.904
*N *48:102 *C 51.952 55.904
*N *48:103 *C 51.8 55.296
*N *48:104 *C 51.952 55.296

*CAP
1 *33:A2 0.0
2 *34:A1 0.03938567
3 *42:A2 0.0
4 *49:Q 0.0
5 *48:92 0.05265988
6 *48:93 0.07829797
7 *48:94 0.05265988
8 *48:95 0.02428439
9 *48:96 0.05550423
10 *48:97 0.02428439
11 *48:98 0.01962634
12 *48:99 0.02279373
13 *48:100 0.01633911
14 *48:101 0.03876205
15 *48:102 0.03938567
16 *48:103 0.02784219
17 *48:104 0.03063879
18 *48:93 *105:397 0.03334612
19 *48:99 *105:397 0.03334612
20 *48:92 *106:406 0.0144839
21 *48:94 *106:403 0.0144839

*RES
1 *48:92 *33:A2 0.5
2 *48:93 *48:94 0.5
3 *48:95 *42:A2 1.0
4 *48:96 *48:97 0.5
5 *48:98 *49:Q 1.0
6 *48:99 *48:100 0.5
7 *48:101 *48:102 1.0
8 *48:102 *34:A1 1.041305
9 *48:103 *48:98 0.7376472
10 *48:103 *48:104 0.1983517
11 *48:104 *48:101 0.990117
12 *48:101 *48:100 0.4696042
13 *48:94 *48:92 2.310666
14 *48:95 *48:97 0.4781763
15 *48:99 *48:93 2.079793
16 *48:93 *48:96 2.079793

*END

*D_NET *50 0.5525837

*CONN
*I *45:Y O *L 0.0 *D OR2X1_RVT *C 58.64 53.928
*I *51:A1 I *L 549.6215 *C 57.652 52.722
*I *52:A2 I *L 442.1154 *C 58.032 49.368
*I *53:A I *L 688.1503 *C 58.488 52.712
*N *50:109 *C 58.032 52.56
*N *50:110 *C 58.032 52.56
*N *50:111 *C 58.488 52.56
*N *50:112 *C 58.488 52.56
*N *50:113 *C 58.032 52.56
*N *50:114 *C 58.032 49.368
*N *50:115 *C 58.64 53.928
*N *50:116 *C 58.488 52.712
*N *50:117 *C 58.488 53.928

*CAP
1 *45:Y 0.0
2 *51:A1 0.020574
3 *52:A2 0.0
4 *53:A 0.0
5 *50:109 0.02660967
6 *50:110 0.1008191
7 *50:111 0.02660967
8 *50:112 0.008401605
9 *50:113 0.020574
10 *50:114 0.1008191
11 *50:115 0.01248014
12 *50:116 0.05342228
13 *50:117 0.05750082
14 *50:110 *60:160 0.03609946
15 *50:114 *60:155 0.03609946
16 *50:114 *110:435 0.02628717
17 *50:114 *110:437 0.02628717

*RES
1 *50:109 *50:110 0.5
2 *50:111 *50:112 0.5
3 *50:110 *50:113 1.0
4 *50:114 *52:A2 1.0
5 *50:115 *45:Y 1.0
6 *50:116 *53:A 1.0
7 *51:A1 *50:113 0.6880001
8 *50:114 *50:110 5.604944
9 *50:112 *50:116 0.1934908
10 *50:116 *50:117 2.077818
11 *50:117 *50:115 0.1700953
12 *50:109 *50:111 0.7409739

*END

*D_NET *54 0.6202607

*CONN
*I *45:A2 I *L 610.4156 *C 58.184 54.207
*I *46:A1 I *L 463.7024 *C 56.512 55.904
*I *42:A1 I *L 481.1977 *C 54.688 56.056
*I *55:Q O *L 0.0 *D SDFFSSRX1_RVT *C 56.968 54.536
*N *54:122 *C 58.184 54.207
*N *54:123 *C 58.184 54.384
*N *54:124 *C 58.184 54.384
*N *54:125 *C 56.968 54.384
*N *54:126 *C 56.968 54.384
*N *54:127 *C 56.512 55.904
*N *54:128 *C 56.512 55.904
*N *54:129 *C 56.968 55.904
*N *54:130 *C 56.968 55.904
*N *54:131 *C 56.968 54.536
*N *54:132 *C 54.688 55.904
*N *54:133 *C 54.688 55.904
*N *54:134 *C 54.688 56.056

*CAP
1 *45:A2 0.0
2 *46:A1 0.0
3 *42:A1 0.0
4 *55:Q 0.0
5 *54:122 0.01698866
6 *54:123 0.05894944
7 *54:124 0.01824375
8 *54:125 0.05894944
9 *54:126 0.01262803
10 *54:127 0.01064657
11 *54:128 0.1164375
12 *54:129 0.02419409
13 *54:130 0.002197352
14 *54:131 0.01482538
15 *54:132 0.08159686
16 *54:133 0.01700833
17 *54:134 0.01700833
18 *54:130 *107:412 0.04360143
19 *54:131 *107:414 0.04360143
20 *54:130 *108:420 0.03160283
21 *54:131 *108:422 0.03160283
22 *54:128 *108:420 0.01008911
23 *54:127 *108:420 0.01008911

*RES
1 *54:122 *45:A2 0.5
2 *54:123 *54:124 0.5
3 *54:125 *54:126 0.5
4 *54:127 *46:A1 1.0
5 *54:128 *54:127 0.5
6 *54:129 *54:130 0.5
7 *54:131 *55:Q 1.0
8 *54:132 *54:133 0.5
9 *54:134 *42:A1 1.0
10 *54:133 *54:134 0.2068502
11 *54:126 *54:131 0.1934908
12 *54:131 *54:130 2.3503
13 *54:122 *54:124 0.2401058
14 *54:132 *54:128 3.16288
15 *54:128 *54:129 0.7338625
16 *54:125 *54:123 2.08344

*END

*D_NET *56 1.033112

*CONN
*I *51:Y O *L 0.0 *D OR2X1_RVT *C 56.968 53.016
*I *57:A1 I *L 549.6215 *C 56.816 47.696
*I *58:A2 I *L 442.1154 *C 55.144 49.368
*I *59:A I *L 688.1503 *C 58.033 47.546
*N *56:139 *C 56.968 53.016
*N *56:140 *C 56.816 47.696
*N *56:141 *C 56.816 47.696
*N *56:142 *C 55.144 49.368
*N *56:143 *C 55.144 47.696
*N *56:144 *C 55.144 47.696
*N *56:145 *C 57.728 47.696
*N *56:146 *C 57.728 47.696
*N *56:147 *C 57.728 47.696
*N *56:148 *C 57.728 47.544
*N *56:149 *C 56.968 47.696

*CAP
1 *51:Y 0.0
2 *57:A1 0.0
3 *58:A2 0.0
4 *59:A 0.02568252
5 *56:139 0.1652986
6 *56:140 0.1160697
7 *56:141 0.01879127
8 *56:142 0.08107538
9 *56:143 0.07398568
10 *56:144 0.08107538
11 *56:145 0.02186621
12 *56:146 0.01755727
13 *56:147 0.0639502
14 *56:148 0.0432398
15 *56:149 0.1840898
16 *56:149 *67:194 0.1404305

*RES
1 *56:139 *51:Y 1.0
2 *56:140 *56:141 0.5
3 *56:141 *57:A1 1.0
4 *56:142 *58:A2 1.0
5 *56:143 *56:144 0.5
6 *56:145 *56:146 1.0
7 *56:147 *56:145 0.5
8 *56:148 *59:A 0.5681001
9 *56:148 *56:146 0.2005987
10 *56:144 *56:142 2.894746
11 *56:141 *56:149 0.1976422
12 *56:149 *56:139 9.401538
13 *56:143 *56:140 2.89194
14 *56:140 *56:147 1.539422

*END

*D_NET *60 1.119152

*CONN
*I *51:A2 I *L 610.4156 *C 57.424 52.737
*I *52:A1 I *L 463.7024 *C 57.728 49.216
*I *61:Q O *L 0.0 *D SDFFX1_RVT *C 57.88 51.192
*I *62:A2 I *L 502.3494 *C 58.032 41.008
*N *60:154 *C 57.424 52.737
*N *60:155 *C 57.728 49.216
*N *60:156 *C 57.88 51.192
*N *60:157 *C 58.032 41.008
*N *60:158 *C 57.576 52.712
*N *60:159 *C 57.576 51.04
*N *60:160 *C 57.728 51.04
*N *60:161 *C 57.88 51.04
*N *60:162 *C 57.728 48.912
*N *60:163 *C 57.88 48.912
*N *60:164 *C 57.88 41.616
*N *60:165 *C 58.032 41.616

*CAP
1 *51:A2 0.0
2 *52:A1 0.0
3 *61:Q 0.0
4 *62:A2 0.0
5 *60:154 0.01790496
6 *60:155 0.01473742
7 *60:156 0.01016261
8 *60:157 0.04118377
9 *60:158 0.08322371
10 *60:159 0.07200936
11 *60:160 0.02254409
12 *60:161 0.0198748
13 *60:162 0.01897509
14 *60:163 0.3078316
15 *60:164 0.306442
16 *60:165 0.05017315
17 *60:160 *50:110 0.03609946
18 *60:155 *50:114 0.03609946
19 *60:163 *110:438 0.01937554
20 *60:163 *110:434 0.01937554
21 *60:155 *110:435 0.02156978
22 *60:155 *110:437 0.02156978

*RES
1 *60:154 *51:A2 0.5
2 *60:155 *52:A1 1.0
3 *60:156 *61:Q 1.0
4 *60:157 *62:A2 1.0
5 *60:154 *60:158 0.2544643
6 *60:159 *60:158 2.888955
7 *60:159 *60:160 0.1869842
8 *60:160 *60:161 0.2070218
9 *60:162 *60:163 0.2138529
10 *60:162 *60:155 0.4512909
11 *60:155 *60:160 3.158655
12 *60:164 *60:163 12.92933
13 *60:164 *60:165 0.1983517
14 *60:161 *60:156 0.2067477
15 *60:157 *60:165 0.997726

*END

*D_NET *63 1.296579

*CONN
*I *57:Y O *L 0.0 *D OR2X1_RVT *C 57.576 47.24
*I *64:A1 I *L 549.6215 *C 56.056 39.184
*I *65:A2 I *L 442.1154 *C 58.184 39.336
*I *66:A I *L 688.1503 *C 56.208 47.544
*N *63:170 *C 56.056 39.184
*N *63:171 *C 56.208 47.088
*N *63:172 *C 56.208 47.088
*N *63:173 *C 57.576 47.088
*N *63:174 *C 57.576 47.088
*N *63:175 *C 57.576 47.24
*N *63:176 *C 56.208 47.544
*N *63:177 *C 58.184 39.336
*N *63:178 *C 58.184 39.488
*N *63:179 *C 58.184 39.488
*N *63:180 *C 56.208 39.488
*N *63:181 *C 56.208 39.488
*N *63:182 *C 56.056 39.488

*CAP
1 *57:Y 0.0
2 *64:A1 0.0
3 *65:A2 0.0
4 *66:A 0.0
5 *63:170 0.02405513
6 *63:171 0.06204262
7 *63:172 0.2881484
8 *63:173 0.06204262
9 *63:174 0.01687752
10 *63:175 0.01687752
11 *63:176 0.02352847
12 *63:177 0.01830974
13 *63:178 0.06685442
14 *63:179 0.01830974
15 *63:180 0.06685442
16 *63:181 0.2715821
17 *63:182 0.0310173