*SPEF "1481-1998"
*DESIGN "spi_top"
*DATE "Tue May  6 09:33:31 2025"
*VENDOR "Synopsys, Inc."
*PROGRAM "icc_shell"
*VERSION "W-2024.09-SP2"
*DESIGN_FLOW "PIN_CAP NONE"
*DIVIDER /
*DELIMITER :
*BUS_DELIMITER [ ]
*T_UNIT 1 NS
*C_UNIT 1 FF
*R_UNIT 1 OHM
*L_UNIT 1 HENRY

*NAME_MAP
*1 wb_adr_i[3]
*2 wb_adr_i[2]
*3 wb_adr_i[1]
*4 wb_adr_i[0]
*5 VDD
*6 wb_dat_i[6]
*7 wb_dat_i[5]
*8 wb_dat_i[4]
*9 wb_dat_i[3]
*10 wb_dat_i[2]
*11 wb_dat_i[1]
*12 wb_dat_i[0]
*13 wb_adr_i[4]
*14 wb_dat_i[14]
*15 wb_dat_i[13]
*16 wb_dat_i[12]
*17 wb_dat_i[11]
*18 wb_dat_i[10]
*19 wb_dat_i[9]
*20 wb_dat_i[8]
*21 wb_dat_i[7]
*22 wb_dat_i[22]
*23 wb_dat_i[21]
*24 wb_dat_i[20]
*25 wb_dat_i[19]
*26 wb_dat_i[18]
*27 wb_dat_i[17]
*28 wb_dat_i[16]
*29 wb_dat_i[15]
*30 wb_dat_i[30]
*31 wb_dat_i[29]
*32 wb_dat_i[28]
*33 wb_dat_i[27]
*34 wb_dat_i[26]
*35 wb_dat_i[25]
*36 wb_dat_i[24]
*37 wb_dat_i[23]
*38 wb_dat_o[6]
*39 wb_dat_o[5]
*40 wb_dat_o[4]
*41 wb_dat_o[3]
*42 wb_dat_o[2]
*43 wb_dat_o[1]
*44 wb_dat_o[0]
*45 wb_dat_i[31]
*46 wb_dat_o[14]
*47 wb_dat_o[13]
*48 wb_dat_o[12]
*49 wb_dat_o[11]
*50 wb_dat_o[10]
*51 wb_dat_o[9]
*52 wb_dat_o[8]
*53 wb_dat_o[7]
*54 wb_dat_o[22]
*55 wb_dat_o[21]
*56 wb_dat_o[20]
*57 wb_dat_o[19]
*58 wb_dat_o[18]
*59 wb_dat_o[17]
*60 wb_dat_o[16]
*61 wb_dat_o[15]
*62 wb_dat_o[30]
*63 wb_dat_o[29]
*64 wb_dat_o[28]
*65 wb_dat_o[27]
*66 wb_dat_o[26]
*67 wb_dat_o[25]
*68 wb_dat_o[24]
*69 wb_dat_o[23]
*70 ss_pad_o[2]
*71 ss_pad_o[1]
*72 ss_pad_o[0]
*73 wb_sel_i[3]
*74 wb_sel_i[2]
*75 wb_sel_i[1]
*76 wb_sel_i[0]
*77 wb_dat_o[31]
*78 wb_we_i
*79 wb_rst_i
*80 wb_clk_i
*81 ss_pad_o[7]
*82 ss_pad_o[6]
*83 ss_pad_o[5]
*84 ss_pad_o[4]
*85 ss_pad_o[3]
*86 mosi_pad_o
*87 sclk_pad_o
*88 wb_int_o
*89 wb_err_o
*90 wb_ack_o
*91 miso_pad_i
*92 wb_cyc_i
*93 wb_stb_i
*94 shift/sub_82/n6
*95 shift/sub_82/U2_5
*96 shift/sub_82/U1
*97 shift/n630
*98 shift/U245
*99 shift/sub_82/U6
*100 shift/add_83/U2
*101 shift/U849
*102 shift/U848
*103 shift/U841
*104 shift/U816
*105 shift/U539
*106 shift/U264
*107 shift/sub_82/n7
*108 shift/sub_82/U2_6
*109 shift/n7
*110 shift/sub_82/U5
*111 shift/add_83/U1_1_4
*112 shift/U837
*113 shift/U818
*114 shift/U543
*115 shift/U142
*116 shift/cnt_reg\[4\]
*117 shift/sub_82/n5
*118 shift/sub_82/U2_4
*119 shift/n633
*120 shift/U242
*121 shift/U143
*122 shift/sub_82/U4
*123 shift/add_83/U1_1_3
*124 shift/U844
*125 shift/U836
*126 shift/U835
*127 shift/U819
*128 shift/U525
*129 shift/U252
*130 shift/sub_82/n4
*131 shift/sub_82/U2_3
*132 shift/n6
*133 shift/sub_82/U3
*134 shift/add_83/U1_1_2
*135 shift/U833
*136 shift/U820
*137 shift/U214
*138 shift/U70
*139 shift/cnt_reg\[2\]
*140 shift/sub_82/n3
*141 shift/sub_82/U2_2
*142 shift/n637
*143 shift/sub_82/U2
*144 shift/add_83/U1_1_1
*145 shift/U831
*146 shift/U821
*147 shift/U421
*148 shift/U144
*149 shift/cnt_reg\[1\]
*150 shift/sub_82/n2
*151 shift/sub_82/U2_1
*152 n7
*153 U201
*154 U304
*155 U7
*156 clgen/U8
*157 clgen/U10
*158 clgen/U18
*159 ctrl\[0\]
*160 shift/sub_82/U2_0
*161 shift/sub_83/U2_0
*162 shift/U822
*163 shift/U17
*164 U326
*165 U180
*166 ctrl_reg\[0\]
*167 shift/sub_82/carry\[1\]
*168 shift/N31
*169 shift/U247
*170 shift/sub_82/carry\[6\]
*171 shift/N37
*172 shift/U428
*173 ctrl\[6\]
*174 shift/sub_83/U2_6
*175 shift/U146
*176 U240
*177 U175
*178 ctrl_reg\[6\]
*179 shift/sub_82/carry\[4\]
*180 ctrl\[4\]
*181 shift/sub_83/U2_4
*182 U261
*183 U174
*184 ctrl_reg\[4\]
*185 shift/sub_82/carry\[5\]
*186 shift/N35
*187 shift/U256
*188 ctrl\[5\]
*189 shift/sub_83/U2_5
*190 shift/U817
*191 U238
*192 U173
*193 ctrl_reg\[5\]
*194 shift/N36
*195 shift/U259
*196 shift/sub_82/carry\[3\]
*197 ctrl\[3\]
*198 shift/sub_83/U2_3
*199 U318
*200 U317
*201 ctrl_reg\[3\]
*202 shift/N34
*203 shift/U253
*204 shift/sub_82/carry\[2\]
*205 ctrl\[2\]
*206 shift/sub_83/U2_2
*207 U320
*208 U178
*209 ctrl_reg\[2\]
*210 shift/N33
*211 shift/U204
*212 ctrl\[1\]
*213 shift/sub_83/U2_1
*214 U325
*215 U179
*216 ctrl_reg\[1\]
*217 shift/N32
*218 shift/U250
*219 shift/N53
*220 shift/add_83/carry\[6\]
*221 shift/add_83/U1_1_5
*222 shift/N49
*223 shift/U526
*224 shift/add_83/carry\[2\]
*225 shift/add_83/carry\[3\]
*226 shift/N50
*227 shift/add_83/carry\[4\]
*228 shift/N51
*229 shift/U265
*230 shift/add_83/carry\[5\]
*231 shift/N48
*232 shift/U528
*233 shift/N52
*234 shift/U266
*235 shift/N54
*236 shift/sub_83/U7
*237 shift/U536
*238 shift/sub_83/n1
*239 shift/N55
*240 shift/sub_83/U6
*241 shift/sub_83/n7
*242 shift/N57
*243 shift/sub_83/U5
*244 shift/sub_83/n5
*245 shift/N59
*246 shift/sub_83/U4
*247 shift/sub_83/n3
*248 shift/N58
*249 shift/sub_83/U3
*250 shift/sub_83/n4
*251 shift/N60
*252 shift/sub_83/U2
*253 shift/sub_83/n2
*254 shift/N56
*255 shift/sub_83/U1
*256 shift/sub_83/n6
*257 n6
*258 U188
*259 U187
*260 U247
*261 U216
*262 U186
*263 U190
*264 U189
*265 U249
*266 U348
*267 U263
*268 U342
*269 U343
*270 U341
*271 U338
*272 U256
*273 U319
*274 U346
*275 U257
*276 U258
*277 U259
*278 U260
*279 U339
*280 U347
*281 U344
*282 U345
*283 U340
*284 U6
*285 shift/sub_83/carry\[1\]
*286 shift/N61
*287 shift/U255
*288 shift/sub_83/carry\[6\]
*289 shift/N67
*290 shift/sub_83/carry\[2\]
*291 shift/N62
*292 shift/sub_83/carry\[5\]
*293 shift/N66
*294 shift/U541
*295 shift/sub_83/carry\[4\]
*296 shift/N65
*297 shift/sub_83/carry\[3\]
*298 shift/N64
*299 shift/N63
*300 shift/n687
*301 shift/U21
*302 shift/n686
*303 shift/U846
*304 shift/U222
*305 shift/N94
*306 shift/n688
*307 shift/U847
*308 shift/N93
*309 shift/n685
*310 shift/U845
*311 shift/U426
*312 shift/n632
*313 shift/U838
*314 shift/U244
*315 shift/U164
*316 shift/n684
*317 shift/U427
*318 shift/n683
*319 shift/U843
*320 shift/U260
*321 shift/n634
*322 shift/U834
*323 shift/U243
*324 shift/U141
*325 shift/n682
*326 shift/U842
*327 shift/n636
*328 shift/U832
*329 shift/U263
*330 shift/n677
*331 shift/U840
*332 shift/N44
*333 shift/n676
*334 shift/U169
*335 shift/N43
*336 shift/U839
*337 shift/n678
*338 shift/N42
*339 shift/n675
*340 shift/U7
*341 shift/N41
*342 shift/n674
*343 shift/U6
*344 shift/n679
*345 shift/N40
*346 shift/n673
*347 shift/U22
*348 shift/n680
*349 shift/N39
*350 shift/n681
*351 shift/n147
*352 shift/U830
*353 shift/U828
*354 shift/U827
*355 shift/U529
*356 shift/U430
*357 shift/tip_reg
*358 shift/U410
*359 shift/U815
*360 shift/U145
*361 shift/U4
*362 _0_net_\[0\]
*363 U198
*364 shift/n313
*365 shift/U11
*366 shift/n386
*367 shift/U829
*368 shift/U545
*369 shift/U248
*370 shift/U20
*371 shift/n312
*372 shift/U603
*373 shift/U221
*374 shift/n137
*375 _0_net_\[2\]
*376 U351
*377 shift/n387
*378 shift/U602
*379 shift/U534
*380 shift/U10
*381 _0_net_\[3\]
*382 shift/n471
*383 shift/U25
*384 shift/n207
*385 shift/U286
*386 shift/U826
*387 shift/U294
*388 shift/U293
*389 shift/U292
*390 shift/U291
*391 shift/U290
*392 shift/U288
*393 shift/U287
*394 shift/U425
*395 shift/U396
*396 shift/U394
*397 shift/n224
*398 shift/U295
*399 shift/U825
*400 shift/U303
*401 shift/U302
*402 shift/U301
*403 shift/U300
*404 shift/U299
*405 shift/U297
*406 shift/U296
*407 shift/U399
*408 shift/U395
*409 shift/U19
*410 shift/n181
*411 shift/U150
*412 shift/U824
*413 shift/U157
*414 shift/U156
*415 shift/U155
*416 shift/U154
*417 shift/U153
*418 shift/U152
*419 shift/U151
*420 shift/U424
*421 shift/U398
*422 shift/U393
*423 U305
*424 U278
*425 shift/n156
*426 shift/U147
*427 shift/U823
*428 shift/U162
*429 shift/U161
*430 shift/U160
*431 shift/U159
*432 shift/U158
*433 shift/U149
*434 shift/U148
*435 shift/U420
*436 shift/U397
*437 shift/U392
*438 U237
*439 U228
*440 U227
*441 shift/n15
*442 shift/cnt_reg\[0\]
*443 shift/n826
*444 shift/U261
*445 shift/n479
*446 shift/U163
*447 shift/U423
*448 shift/n623
*449 shift/n141
*450 shift/U472
*451 shift/U470
*452 shift/U515
*453 shift/U451
*454 shift/U449
*455 shift/U494
*456 shift/U513
*457 shift/U492
*458 shift/U466
*459 shift/U439
*460 shift/U436
*461 shift/U464
*462 shift/U488
*463 shift/U474
*464 shift/U486
*465 shift/U507
*466 shift/U509
*467 shift/U453
*468 shift/U496
*469 shift/U517
*470 shift/U445
*471 shift/U455
*472 shift/U503
*473 shift/U505
*474 shift/U442
*475 shift/U498
*476 shift/U519
*477 shift/U476
*478 shift/U484
*479 shift/U460
*480 shift/U482
*481 shift/U462
*482 shift/U168
*483 shift/N89
*484 shift/n622
*485 shift/N90
*486 shift/n621
*487 shift/N91
*488 shift/n620
*489 shift/cnt_reg\[3\]
*490 shift/N92
*491 shift/n619
*492 shift/n618
*493 shift/cnt_reg\[5\]
*494 shift/n617
*495 shift/cnt_reg\[6\]
*496 shift/n483
*497 shift/n624
*498 shift/n747
*499 shift/U814
*500 shift/U767
*501 shift/n295
*502 shift/U110
*503 shift/n543
*504 shift/data_reg\[56\]
*505 shift/n296
*506 shift/U322
*507 rx\[56\]
*508 U252
*509 shift/n292
*510 shift/U813
*511 shift/U601
*512 shift/U320
*513 shift/n749
*514 shift/n286
*515 shift/U812
*516 shift/U811
*517 shift/U317
*518 shift/n752
*519 shift/n285
*520 shift/U46
*521 shift/n538
*522 shift/data_reg\[51\]
*523 rx\[51\]
*524 shift/U497
*525 U255
*526 shift/n288
*527 shift/U810
*528 shift/U600
*529 shift/U318
*530 shift/n751
*531 shift/n290
*532 shift/U809
*533 shift/U808
*534 shift/U319
*535 shift/n750
*536 shift/n289
*537 shift/U109
*538 shift/n540
*539 shift/data_reg\[53\]
*540 rx\[53\]
*541 U242
*542 shift/n278
*543 shift/U807
*544 shift/U599
*545 shift/U313
*546 shift/n755
*547 shift/n282
*548 shift/U806
*549 shift/U805
*550 shift/U314
*551 shift/n754
*552 shift/n281
*553 shift/U107
*554 shift/n536
*555 shift/data_reg\[49\]
*556 rx\[49\]
*557 U243
*558 shift/n284
*559 shift/U804
*560 shift/U598
*561 shift/U315
*562 shift/n753
*563 shift/n271
*564 shift/U803
*565 shift/U802
*566 shift/U312
*567 shift/n726
*568 shift/n270
*569 shift/U35
*570 shift/n532
*571 shift/data_reg\[45\]
*572 rx\[45\]
*573 U349
*574 shift/n273
*575 shift/U801
*576 shift/U281
*577 shift/U280
*578 shift/n725
*579 shift/n265
*580 shift/U800
*581 shift/U799
*582 shift/U310
*583 shift/n729
*584 shift/n264
*585 shift/U28
*586 shift/n529
*587 shift/data_reg\[42\]
*588 rx\[42\]
*589 shift/U481
*590 U287
*591 shift/n269
*592 shift/U798
*593 shift/U279
*594 shift/U278
*595 shift/n727
*596 shift/n260
*597 shift/U797
*598 shift/U796
*599 shift/U309
*600 shift/n731
*601 shift/n259
*602 shift/U34
*603 shift/n527
*604 shift/data_reg\[40\]
*605 rx\[40\]
*606 U286
*607 shift/n263
*608 shift/U795
*609 shift/U277
*610 shift/U276
*611 shift/n730
*612 shift/n252
*613 shift/U794
*614 shift/U793
*615 shift/U306
*616 shift/n735
*617 shift/n251
*618 shift/U33
*619 shift/n523
*620 shift/data_reg\[36\]
*621 rx\[36\]
*622 U283
*623 shift/n254
*624 shift/U792
*625 shift/U273
*626 shift/U272
*627 shift/n734
*628 shift/n256
*629 shift/U791
*630 shift/U790
*631 shift/U307
*632 shift/n733
*633 shift/n255
*634 shift/U308
*635 shift/n525
*636 shift/data_reg\[38\]
*637 rx\[38\]
*638 shift/U485
*639 U290
*640 shift/n246
*641 shift/U789
*642 shift/U269
*643 shift/U268
*644 shift/n738
*645 shift/n248
*646 shift/U788
*647 shift/U787
*648 shift/U305
*649 shift/n737
*650 shift/n247
*651 shift/U27
*652 shift/n521
*653 shift/data_reg\[34\]
*654 rx\[34\]
*655 shift/U487
*656 U282
*657 shift/n250
*658 shift/U786
*659 shift/U271
*660 shift/U270
*661 shift/n736
*662 shift/n241
*663 shift/U785
*664 shift/U784
*665 shift/U304
*666 shift/n739
*667 shift/n240
*668 shift/U32
*669 shift/n519
*670 shift/data_reg\[32\]
*671 rx\[32\]
*672 U281
*673 shift/n299
*674 shift/U783
*675 shift/U595
*676 shift/U390
*677 shift/n746
*678 shift/n301
*679 shift/U782
*680 shift/U781
*681 shift/U323
*682 shift/n745
*683 shift/n300
*684 shift/U78
*685 shift/n545
*686 shift/data_reg\[58\]
*687 rx\[58\]
*688 shift/U491
*689 U248
*690 shift/n305
*691 shift/U780
*692 shift/U594
*693 shift/U325
*694 shift/n743
*695 shift/n307
*696 shift/U779
*697 shift/U778
*698 shift/U326
*699 shift/n742
*700 shift/n306
*701 shift/U112
*702 shift/n548
*703 shift/data_reg\[61\]
*704 rx\[61\]
*705 U293
*706 shift/n309
*707 shift/U777
*708 shift/U593
*709 shift/U327
*710 shift/n741
*711 shift/n294
*712 shift/U776
*713 shift/U775
*714 shift/U321
*715 shift/n748
*716 shift/n293
*717 shift/U125
*718 shift/n542
*719 shift/data_reg\[55\]
*720 rx\[55\]
*721 shift/U495
*722 U253
*723 shift/n275
*724 shift/U774
*725 shift/U283
*726 shift/U282
*727 shift/n724
*728 shift/n267
*729 shift/U773
*730 shift/U772
*731 shift/U311
*732 shift/n728
*733 shift/n266
*734 shift/U44
*735 shift/n530
*736 shift/data_reg\[43\]
*737 rx\[43\]
*738 U288
*739 shift/n258
*740 shift/U771
*741 shift/U275
*742 shift/U274
*743 shift/n732
*744 shift/n303
*745 shift/U770
*746 shift/U769
*747 shift/U324
*748 shift/n744
*749 shift/n302
*750 shift/U47
*751 shift/n546
*752 shift/data_reg\[59\]
*753 rx\[59\]
*754 U295
*755 shift/n311
*756 shift/U768
*757 shift/U592
*758 shift/U329
*759 shift/n740
*760 shift/n242
*761 shift/U126
*762 shift/U328
*763 shift/U111
*764 shift/U123
*765 shift/U45
*766 shift/U102
*767 shift/U92
*768 shift/U23
*769 shift/U124
*770 shift/U77
*771 shift/U103
*772 shift/U108
*773 shift/U316
*774 shift/U106
*775 shift/U105
*776 shift/U76
*777 shift/U104
*778 shift/n236
*779 shift/U762
*780 shift/U761
*781 shift/n709
*782 shift/n235
*783 shift/U26
*784 shift/n517
*785 shift/data_reg\[30\]
*786 rx\[30\]
*787 shift/U514
*788 U314
*789 shift/n232
*790 shift/U760
*791 shift/U759
*792 shift/n711
*793 shift/n231
*794 shift/U97
*795 shift/n515
*796 shift/data_reg\[28\]
*797 rx\[28\]
*798 U294
*799 shift/n234
*800 shift/U758
*801 shift/U757
*802 shift/n710
*803 shift/n233
*804 shift/U98
*805 shift/n516
*806 shift/data_reg\[29\]
*807 rx\[29\]
*808 shift/n223
*809 shift/U756
*810 shift/U755
*811 shift/n715
*812 shift/n222
*813 shift/U95
*814 shift/n511
*815 shift/data_reg\[24\]
*816 rx\[24\]
*817 shift/n226
*818 shift/U754
*819 shift/U753
*820 shift/n714
*821 shift/n225
*822 shift/U96
*823 shift/n512
*824 shift/data_reg\[25\]
*825 rx\[25\]
*826 U303
*827 shift/n228
*828 shift/U752
*829 shift/U751
*830 shift/n713
*831 shift/n227
*832 shift/U298
*833 shift/n513
*834 shift/data_reg\[26\]
*835 rx\[26\]
*836 shift/U512
*837 shift/n217
*838 shift/U750
*839 shift/U749
*840 shift/n718
*841 shift/n216
*842 shift/U94
*843 shift/n508
*844 shift/data_reg\[21\]
*845 rx\[21\]
*846 shift/n219
*847 shift/U748
*848 shift/U747
*849 shift/n717
*850 shift/n218
*851 shift/U75
*852 shift/n509
*853 shift/data_reg\[22\]
*854 rx\[22\]
*855 shift/U516
*856 U250
*857 shift/n211
*858 shift/U746
*859 shift/U745
*860 shift/n721
*861 shift/n210
*862 shift/U289
*863 shift/n505
*864 shift/data_reg\[18\]
*865 rx\[18\]
*866 shift/U518
*867 U251
*868 shift/n213
*869 shift/U744
*870 shift/U743
*871 shift/n720
*872 shift/n212
*873 shift/U36
*874 shift/n506
*875 shift/data_reg\[19\]
*876 rx\[19\]
*877 shift/n215
*878 shift/U742
*879 shift/U741
*880 shift/n719
*881 shift/n214
*882 shift/U93
*883 shift/n507
*884 shift/data_reg\[20\]
*885 rx\[20\]
*886 U254
*887 shift/n205
*888 shift/U740
*889 shift/U739
*890 shift/n723
*891 shift/n204
*892 shift/U30
*893 shift/n503
*894 shift/data_reg\[16\]
*895 rx\[16\]
*896 U244
*897 shift/n209
*898 shift/U738
*899 shift/U737
*900 shift/n722
*901 shift/n208
*902 shift/U31
*903 shift/n504
*904 shift/data_reg\[17\]
*905 rx\[17\]
*906 shift/n238
*907 shift/U736
*908 shift/U735
*909 shift/n708
*910 shift/n237
*911 shift/U39
*912 shift/n518
*913 shift/data_reg\[31\]
*914 rx\[31\]
*915 U246
*916 shift/n230
*917 shift/U734
*918 shift/U733
*919 shift/n712
*920 shift/n229
*921 shift/U38
*922 shift/n514
*923 shift/data_reg\[27\]
*924 rx\[27\]
*925 shift/n221
*926 shift/U732
*927 shift/U731
*928 shift/n716
*929 shift/n220
*930 shift/U37
*931 shift/n510
*932 shift/data_reg\[23\]
*933 rx\[23\]
*934 shift/n316
*935 shift/U730
*936 shift/U729
*937 shift/U330
*938 shift/n819
*939 shift/n315
*940 shift/U40
*941 shift/n551
*942 shift/data_reg\[64\]
*943 rx\[64\]
*944 shift/n321
*945 shift/U728
*946 shift/U727
*947 shift/U331
*948 shift/n818
*949 shift/n320
*950 shift/U41
*951 shift/n552
*952 shift/data_reg\[65\]
*953 rx\[65\]
*954 U350
*955 shift/n323
*956 shift/U726
*957 shift/U725
*958 shift/U332
*959 shift/n817
*960 shift/n322
*961 shift/U29
*962 shift/n553
*963 shift/data_reg\[66\]
*964 rx\[66\]
*965 shift/U465
*966 shift/n325
*967 shift/U724
*968 shift/U723
*969 shift/U333
*970 shift/n816
*971 shift/n324
*972 shift/U48
*973 shift/n554
*974 shift/data_reg\[67\]
*975 rx\[67\]
*976 U289
*977 shift/n327
*978 shift/U722
*979 shift/U721
*980 shift/U334
*981 shift/n815
*982 shift/n326
*983 shift/U42
*984 shift/n555
*985 shift/data_reg\[68\]
*986 rx\[68\]
*987 shift/n329
*988 shift/U720
*989 shift/U719
*990 shift/U335
*991 shift/n814
*992 shift/n328
*993 shift/U43
*994 shift/n556
*995 shift/data_reg\[69\]
*996 rx\[69\]
*997 U284
*998 shift/n331
*999 shift/U718
*1000 shift/U717
*1001 shift/U336
*1002 shift/n813
*1003 shift/n330
*1004 shift/U87
*1005 shift/n557
*1006 shift/data_reg\[70\]
*1007 rx\[70\]
*1008 shift/U463
*1009 shift/n335
*1010 shift/U716
*1011 shift/U715
*1012 shift/U338
*1013 shift/n811
*1014 shift/n334
*1015 shift/U119
*1016 shift/n559
*1017 shift/data_reg\[72\]
*1018 rx\[72\]
*1019 shift/n338
*1020 shift/U714
*1021 shift/U713
*1022 shift/U339
*1023 shift/n810
*1024 shift/n337
*1025 shift/U120
*1026 shift/n560
*1027 shift/data_reg\[73\]
*1028 rx\[73\]
*1029 U291
*1030 shift/n340
*1031 shift/U712
*1032 shift/U711
*1033 shift/U340
*1034 shift/n809
*1035 shift/n339
*1036 shift/U88
*1037 shift/n561
*1038 shift/data_reg\[74\]
*1039 rx\[74\]
*1040 shift/U459
*1041 shift/n344
*1042 shift/U710
*1043 shift/U709
*1044 shift/U342
*1045 shift/n807
*1046 shift/n343
*1047 shift/U121
*1048 shift/n563
*1049 shift/data_reg\[76\]
*1050 rx\[76\]
*1051 U292
*1052 shift/n346
*1053 shift/U708
*1054 shift/U707
*1055 shift/U343
*1056 shift/n806
*1057 shift/n345
*1058 shift/U122
*1059 shift/n564
*1060 shift/data_reg\[77\]
*1061 rx\[77\]
*1062 shift/n348
*1063 shift/U706
*1064 shift/U705
*1065 shift/U344
*1066 shift/n805
*1067 shift/n347
*1068 shift/U345
*1069 shift/n565
*1070 shift/data_reg\[78\]
*1071 rx\[78\]
*1072 shift/U461
*1073 rx\[80\]
*1074 shift/U704
*1075 shift/data_reg\[80\]
*1076 shift/n351
*1077 shift/U66
*1078 shift/n567
*1079 shift/n352
*1080 shift/U585
*1081 shift/n144
*1082 shift/U581
*1083 shift/n356
*1084 shift/U703
*1085 shift/U702
*1086 shift/U347
*1087 shift/n803
*1088 shift/n355
*1089 shift/U127
*1090 shift/n568
*1091 shift/data_reg\[81\]
*1092 rx\[81\]
*1093 shift/n358
*1094 shift/U701
*1095 shift/U700
*1096 shift/U348
*1097 shift/n802
*1098 shift/n357
*1099 shift/U99
*1100 shift/n569
*1101 shift/data_reg\[82\]
*1102 rx\[82\]
*1103 shift/U475
*1104 shift/n360
*1105 shift/U699
*1106 shift/U698
*1107 shift/U349
*1108 shift/n801
*1109 shift/n359
*1110 shift/U137
*1111 shift/n570
*1112 shift/data_reg\[83\]
*1113 rx\[83\]
*1114 shift/n362
*1115 shift/U697
*1116 shift/U696
*1117 shift/U350
*1118 shift/n800
*1119 shift/n361
*1120 shift/U129
*1121 shift/n571
*1122 shift/data_reg\[84\]
*1123 rx\[84\]
*1124 shift/n364
*1125 shift/U695
*1126 shift/U694
*1127 shift/U351
*1128 shift/n799
*1129 shift/n363
*1130 shift/U130
*1131 shift/n572
*1132 shift/data_reg\[85\]
*1133 rx\[85\]
*1134 shift/n366
*1135 shift/U693
*1136 shift/U692
*1137 shift/U352
*1138 shift/n798
*1139 shift/n365
*1140 shift/U100
*1141 shift/n573
*1142 shift/data_reg\[86\]
*1143 rx\[86\]
*1144 shift/U473
*1145 shift/n370
*1146 shift/U691
*1147 shift/U690
*1148 shift/U354
*1149 shift/n796
*1150 shift/n369
*1151 shift/U131
*1152 shift/n575
*1153 shift/data_reg\[88\]
*1154 rx\[88\]
*1155 shift/n373
*1156 shift/U689
*1157 shift/U688
*1158 shift/U355
*1159 shift/n795
*1160 shift/n372
*1161 shift/U128
*1162 shift/n576
*1163 shift/data_reg\[89\]
*1164 rx\[89\]
*1165 shift/n375
*1166 shift/U687
*1167 shift/U686
*1168 shift/U356
*1169 shift/n794
*1170 shift/n374
*1171 shift/U357
*1172 shift/n577
*1173 shift/data_reg\[90\]
*1174 rx\[90\]
*1175 shift/U469
*1176 shift/n379
*1177 shift/U685
*1178 shift/U684
*1179 shift/U359
*1180 shift/n792
*1181 shift/n378
*1182 shift/U132
*1183 shift/n579
*1184 shift/data_reg\[92\]
*1185 rx\[92\]
*1186 shift/n381
*1187 shift/U683
*1188 shift/U682
*1189 shift/U360
*1190 shift/n791
*1191 shift/n380
*1192 shift/U133
*1193 shift/n580
*1194 shift/data_reg\[93\]
*1195 rx\[93\]
*1196 shift/n383
*1197 shift/U681
*1198 shift/U680
*1199 shift/U361
*1200 shift/n790
*1201 shift/n382
*1202 shift/U101
*1203 shift/n581
*1204 shift/data_reg\[94\]
*1205 rx\[94\]
*1206 shift/U471
*1207 shift/n333
*1208 shift/U679
*1209 shift/U678
*1210 shift/U337
*1211 shift/n812
*1212 shift/n332
*1213 shift/U49
*1214 shift/n558
*1215 shift/data_reg\[71\]
*1216 rx\[71\]
*1217 U285
*1218 shift/n342
*1219 shift/U677
*1220 shift/U676
*1221 shift/U341
*1222 shift/n808
*1223 shift/n341
*1224 shift/U50
*1225 shift/n562
*1226 shift/data_reg\[75\]
*1227 rx\[75\]
*1228 shift/n350
*1229 shift/U675
*1230 shift/U674
*1231 shift/U346
*1232 shift/n804
*1233 shift/n349
*1234 shift/U89
*1235 shift/n566
*1236 shift/data_reg\[79\]
*1237 rx\[79\]
*1238 shift/n368
*1239 shift/U673
*1240 shift/U672
*1241 shift/U353
*1242 shift/n797
*1243 shift/n367
*1244 shift/U138
*1245 shift/n574
*1246 shift/data_reg\[87\]
*1247 rx\[87\]
*1248 shift/n377
*1249 shift/U671
*1250 shift/U670
*1251 shift/U358
*1252 shift/n793
*1253 shift/n376
*1254 shift/U139
*1255 shift/n578
*1256 shift/data_reg\[91\]
*1257 rx\[91\]
*1258 shift/n385
*1259 shift/U669
*1260 shift/U668
*1261 shift/U362
*1262 shift/n789
*1263 shift/n384
*1264 shift/U140
*1265 shift/n582
*1266 shift/data_reg\[95\]
*1267 rx\[95\]
*1268 shift/n389
*1269 shift/U667
*1270 shift/U666
*1271 shift/U363
*1272 shift/n788
*1273 shift/n388
*1274 shift/U113
*1275 shift/n583
*1276 shift/data_reg\[96\]
*1277 rx\[96\]
*1278 shift/n394
*1279 shift/U665
*1280 shift/U664
*1281 shift/U364
*1282 shift/n787
*1283 shift/n393
*1284 shift/U114
*1285 shift/n584
*1286 shift/data_reg\[97\]
*1287 rx\[97\]
*1288 shift/n396
*1289 shift/U663
*1290 shift/U662
*1291 shift/U365
*1292 shift/n786
*1293 shift/n395
*1294 shift/U79
*1295 shift/n585
*1296 shift/data_reg\[98\]
*1297 rx\[98\]
*1298 shift/U435
*1299 shift/n398
*1300 shift/U661
*1301 shift/U660
*1302 shift/U366
*1303 shift/n785
*1304 shift/n397
*1305 shift/U134
*1306 shift/n586
*1307 shift/data_reg\[99\]
*1308 rx\[99\]
*1309 shift/n400
*1310 shift/U659
*1311 shift/U658
*1312 shift/U367
*1313 shift/n784
*1314 shift/n399
*1315 shift/U115
*1316 shift/n587
*1317 shift/data_reg\[100\]
*1318 rx\[100\]
*1319 shift/n402
*1320 shift/U657
*1321 shift/U656
*1322 shift/U368
*1323 shift/n783
*1324 shift/n401
*1325 shift/U116
*1326 shift/n588
*1327 shift/data_reg\[101\]
*1328 rx\[101\]
*1329 shift/n404
*1330 shift/U655
*1331 shift/U654
*1332 shift/U369
*1333 shift/n782
*1334 shift/n403
*1335 shift/U80
*1336 shift/n589
*1337 shift/data_reg\[102\]
*1338 rx\[102\]
*1339 shift/U438
*1340 shift/n408
*1341 shift/U653
*1342 shift/U652
*1343 shift/U371
*1344 shift/n780
*1345 shift/n407
*1346 shift/U73
*1347 shift/n591
*1348 shift/data_reg\[104\]
*1349 rx\[104\]
*1350 shift/n411
*1351 shift/U651
*1352 shift/U650
*1353 shift/U372
*1354 shift/n779
*1355 shift/n410
*1356 shift/U74
*1357 shift/n592
*1358 shift/data_reg\[105\]
*1359 rx\[105\]
*1360 shift/n413
*1361 shift/U649
*1362 shift/U648
*1363 shift/U373
*1364 shift/n778
*1365 shift/n412
*1366 shift/U374
*1367 shift/n593
*1368 shift/data_reg\[106\]
*1369 rx\[106\]
*1370 shift/U444
*1371 shift/n417
*1372 shift/U647
*1373 shift/U646
*1374 shift/U376
*1375 shift/n776
*1376 shift/n416
*1377 shift/U81
*1378 shift/n595
*1379 shift/data_reg\[108\]
*1380 rx\[108\]
*1381 shift/n419
*1382 shift/U645
*1383 shift/U644
*1384 shift/U377
*1385 shift/n775
*1386 shift/n418
*1387 shift/U82
*1388 shift/n596
*1389 shift/data_reg\[109\]
*1390 rx\[109\]
*1391 shift/n421
*1392 shift/U643
*1393 shift/U642
*1394 shift/U378
*1395 shift/n774
*1396 shift/n420
*1397 shift/U91
*1398 shift/n597
*1399 shift/data_reg\[110\]
*1400 rx\[110\]
*1401 shift/U441
*1402 shift/n406
*1403 shift/U641
*1404 shift/U640
*1405 shift/U370
*1406 shift/n781
*1407 shift/n405
*1408 shift/U135
*1409 shift/n590
*1410 shift/data_reg\[103\]
*1411 rx\[103\]
*1412 shift/n415
*1413 shift/U639
*1414 shift/U638
*1415 shift/U375
*1416 shift/n777
*1417 shift/n414
*1418 shift/U90
*1419 shift/n594
*1420 shift/data_reg\[107\]
*1421 rx\[107\]
*1422 shift/n423
*1423 shift/U637
*1424 shift/U636
*1425 shift/U379
*1426 shift/n773
*1427 shift/n422
*1428 shift/U136
*1429 shift/n598
*1430 shift/data_reg\[111\]
*1431 rx\[111\]
*1432 shift/n425
*1433 shift/U635
*1434 shift/U634
*1435 shift/U380
*1436 shift/n772
*1437 shift/n424
*1438 shift/U83
*1439 shift/n599
*1440 shift/data_reg\[112\]
*1441 rx\[112\]
*1442 shift/n431
*1443 shift/U633
*1444 shift/U632
*1445 shift/U381
*1446 shift/n771
*1447 shift/n430
*1448 shift/U84
*1449 shift/n600
*1450 shift/data_reg\[113\]
*1451 rx\[113\]
*1452 shift/n434
*1453 shift/U631
*1454 shift/U630
*1455 shift/U382
*1456 shift/n770
*1457 shift/n433
*1458 shift/U383
*1459 shift/n601
*1460 shift/data_reg\[114\]
*1461 rx\[114\]
*1462 shift/U454
*1463 shift/n437
*1464 shift/U629
*1465 shift/U628
*1466 shift/U384
*1467 shift/n769
*1468 shift/n436
*1469 shift/U117
*1470 shift/n602
*1471 shift/data_reg\[115\]
*1472 rx\[115\]
*1473 shift/n440
*1474 shift/U627
*1475 shift/U626
*1476 shift/U385
*1477 shift/n768
*1478 shift/n439
*1479 shift/U85
*1480 shift/n603
*1481 shift/data_reg\[116\]
*1482 rx\[116\]
*1483 shift/n443
*1484 shift/U625
*1485 shift/U624
*1486 shift/U386
*1487 shift/n767
*1488 shift/n442
*1489 shift/U86
*1490 shift/n604
*1491 shift/data_reg\[117\]
*1492 rx\[117\]
*1493 shift/n445
*1494 shift/U623
*1495 shift/U622
*1496 shift/U387
*1497 shift/n766
*1498 shift/n444
*1499 shift/U72
*1500 shift/n605
*1501 shift/data_reg\[118\]
*1502 rx\[118\]
*1503 shift/U452
*1504 shift/n451
*1505 shift/U621
*1506 shift/U620
*1507 shift/U412
*1508 shift/n764
*1509 shift/n450
*1510 shift/U411
*1511 shift/n607
*1512 shift/data_reg\[120\]
*1513 rx\[120\]
*1514 shift/n455
*1515 shift/U619
*1516 shift/U618
*1517 shift/U414
*1518 shift/n763
*1519 shift/n454
*1520 shift/U413
*1521 shift/n608
*1522 shift/data_reg\[121\]
*1523 rx\[121\]
*1524 shift/n457
*1525 shift/U617
*1526 shift/U616
*1527 shift/U401
*1528 shift/n762
*1529 shift/n456
*1530 shift/U400
*1531 shift/n609
*1532 shift/data_reg\[122\]
*1533 rx\[122\]
*1534 shift/U448
*1535 shift/n461
*1536 shift/U615
*1537 shift/U614
*1538 shift/U416
*1539 shift/n760
*1540 shift/n460
*1541 shift/U415
*1542 shift/n611
*1543 shift/data_reg\[124\]
*1544 rx\[124\]
*1545 shift/n464
*1546 shift/U613
*1547 shift/U612
*1548 shift/U418
*1549 shift/n759
*1550 shift/n463
*1551 shift/U417
*1552 shift/n612
*1553 shift/data_reg\[125\]
*1554 rx\[125\]
*1555 shift/n468
*1556 shift/U611
*1557 shift/U610
*1558 shift/U405
*1559 shift/n758
*1560 shift/n467
*1561 shift/U404
*1562 shift/n613
*1563 shift/data_reg\[126\]
*1564 rx\[126\]
*1565 shift/U450
*1566 shift/n447
*1567 shift/U609
*1568 shift/U608
*1569 shift/U388
*1570 shift/n765
*1571 shift/n446
*1572 shift/U118
*1573 shift/n606
*1574 shift/data_reg\[119\]
*1575 rx\[119\]
*1576 shift/n459
*1577 shift/U607
*1578 shift/U606
*1579 shift/U403
*1580 shift/n761
*1581 shift/n458
*1582 shift/U402
*1583 shift/n610
*1584 shift/data_reg\[123\]
*1585 rx\[123\]
*1586 shift/n470
*1587 shift/U605
*1588 shift/U604
*1589 shift/U407
*1590 shift/n757
*1591 shift/n469
*1592 shift/U406
*1593 shift/n614
*1594 shift/data_reg\[127\]
*1595 rx\[127\]
*1596 shift/n140
*1597 shift/U493
*1598 shift/U506
*1599 shift/U508
*1600 shift/U502
*1601 shift/U504
*1602 shift/U483
*1603 shift/U167
*1604 shift/n481
*1605 shift/U246
*1606 shift/n203
*1607 shift/U71
*1608 shift/U24
*1609 shift/n475
*1610 shift/n474
*1611 shift/U267
*1612 shift/n291
*1613 shift/n541
*1614 shift/data_reg\[54\]
*1615 rx\[54\]
*1616 shift/n287
*1617 shift/n539
*1618 shift/data_reg\[52\]
*1619 rx\[52\]
*1620 shift/n277
*1621 shift/n535
*1622 shift/data_reg\[48\]
*1623 rx\[48\]
*1624 shift/n283
*1625 shift/n537
*1626 shift/data_reg\[50\]
*1627 rx\[50\]
*1628 shift/n243
*1629 shift/U68
*1630 shift/n298
*1631 shift/n544
*1632 shift/data_reg\[57\]
*1633 rx\[57\]
*1634 shift/n304
*1635 shift/n547
*1636 shift/data_reg\[60\]
*1637 rx\[60\]
*1638 shift/n308
*1639 shift/n549
*1640 shift/data_reg\[62\]
*1641 rx\[62\]
*1642 shift/n310
*1643 shift/n550
*1644 shift/data_reg\[63\]
*1645 rx\[63\]
*1646 shift/n279
*1647 shift/U15
*1648 shift/n206
*1649 shift/U13
*1650 shift/n318
*1651 shift/U69
*1652 shift/n154
*1653 shift/U586
*1654 shift/U584
*1655 shift/n428
*1656 shift/U206
*1657 shift/U205
*1658 shift/U183
*1659 shift/U179
*1660 shift/n429
*1661 shift/U203
*1662 shift/U189
*1663 shift/U188
*1664 shift/U187
*1665 shift/n149
*1666 shift/U249
*1667 shift/n148
*1668 shift/n143
*1669 shift/U57
*1670 shift/U60
*1671 shift/U59
*1672 shift/U58
*1673 shift/U171
*1674 shift/n391
*1675 shift/U12
*1676 shift/n146
*1677 shift/U63
*1678 shift/U65
*1679 shift/U64
*1680 shift/U51
*1681 shift/U52
*1682 shift/U62
*1683 shift/U389
*1684 shift/U61
*1685 shift/U53
*1686 shift/U54
*1687 shift/U55
*1688 shift/U56
*1689 shift/U173
*1690 shift/n426
*1691 shift/U14
*1692 shift/n145
*1693 shift/U172
*1694 shift/n353
*1695 shift/U16
*1696 shift/n152
*1697 shift/U577
*1698 shift/U576
*1699 shift/n707
*1700 rx\[0\]
*1701 shift/data_reg\[0\]
*1702 shift/n151
*1703 shift/n487
*1704 shift/n201
*1705 shift/U575
*1706 shift/U574
*1707 shift/n692
*1708 rx\[15\]
*1709 shift/data_reg\[15\]
*1710 U266
*1711 shift/n200
*1712 shift/n502
*1713 shift/n192
*1714 shift/U573
*1715 shift/U572
*1716 shift/n695
*1717 rx\[12\]
*1718 shift/data_reg\[12\]
*1719 shift/n191
*1720 shift/n499
*1721 shift/n195
*1722 shift/U571
*1723 shift/U570
*1724 shift/n694
*1725 rx\[13\]
*1726 shift/data_reg\[13\]
*1727 shift/n194
*1728 shift/n500
*1729 shift/n198
*1730 shift/U569
*1731 shift/U568
*1732 shift/n693
*1733 rx\[14\]
*1734 shift/data_reg\[14\]
*1735 U265
*1736 shift/n197
*1737 shift/n501
*1738 shift/n183
*1739 shift/U567
*1740 shift/U566
*1741 shift/n698
*1742 rx\[9\]
*1743 shift/data_reg\[9\]
*1744 shift/n182
*1745 shift/n496
*1746 shift/n186
*1747 shift/U565
*1748 shift/U564
*1749 shift/n697
*1750 rx\[10\]
*1751 shift/data_reg\[10\]
*1752 shift/n185
*1753 shift/n497
*1754 shift/n189
*1755 shift/U563
*1756 shift/U562
*1757 shift/n696