*SPEF "1481-1998"
*DESIGN "usb_phy"
*DATE "Tue May  6 09:38:05 2025"
*VENDOR "Synopsys, Inc."
*PROGRAM "icc_shell"
*VERSION "W-2024.09-SP2"
*DESIGN_FLOW "PIN_CAP NONE"
*DIVIDER /
*DELIMITER :
*BUS_DELIMITER [ ]
*T_UNIT 1 NS
*C_UNIT 1 FF
*R_UNIT 1 OHM
*L_UNIT 1 HENRY

*NAME_MAP
*1 DataOut_i[0]
*2 VDD
*3 VSS
*4 DataIn_o[0]
*5 DataOut_i[7]
*6 DataOut_i[6]
*7 DataOut_i[5]
*8 DataOut_i[4]
*9 DataOut_i[3]
*10 DataOut_i[2]
*11 DataOut_i[1]
*12 LineState_o[0]
*13 DataIn_o[7]
*14 DataIn_o[6]
*15 DataIn_o[5]
*16 DataIn_o[4]
*17 DataIn_o[3]
*18 DataIn_o[2]
*19 DataIn_o[1]
*20 TxValid_i
*21 rxdn
*22 rxdp
*23 rxd
*24 phy_tx_mode
*25 rst
*26 clk
*27 LineState_o[1]
*28 RxError_o
*29 RxActive_o
*30 RxValid_o
*31 TxReady_o
*32 txoe
*33 txdn
*34 txdp
*35 usb_rst
*36 i_rx_phy/n40
*37 i_rx_phy/U90
*38 i_rx_phy/U89
*39 i_rx_phy/U88
*40 i_rx_phy/U14
*41 i_rx_phy/n50
*42 i_rx_phy/U87
*43 fs_ce
*44 i_tx_phy/U104
*45 U24
*46 i_tx_phy/U1
*47 i_rx_phy/U41
*48 i_rx_phy/U36
*49 i_rx_phy/U35
*50 i_rx_phy/U33
*51 i_rx_phy/U32
*52 i_rx_phy/U13
*53 i_rx_phy/fs_ce_reg
*54 i_rx_phy/n19
*55 i_rx_phy/U83
*56 i_rx_phy/U77
*57 i_rx_phy/n41
*58 i_rx_phy/U24
*59 i_rx_phy/n119
*60 i_rx_phy/U23
*61 i_rx_phy/bit_stuff_err_reg
*62 i_rx_phy/n29
*63 i_rx_phy/U85
*64 i_rx_phy/U82
*65 i_rx_phy/U81
*66 i_rx_phy/U76
*67 i_rx_phy/n47
*68 i_rx_phy/U84
*69 i_rx_phy/U27
*70 i_rx_phy/U26
*71 i_rx_phy/n116
*72 i_rx_phy/U74
*73 i_rx_phy/U73
*74 i_rx_phy/bit_cnt_reg\[1\]
*75 i_rx_phy/n23
*76 i_rx_phy/U75
*77 i_rx_phy/n26
*78 i_rx_phy/n117
*79 i_rx_phy/bit_cnt_reg\[0\]
*80 i_rx_phy/n5
*81 i_rx_phy/U31
*82 i_rx_phy/n31
*83 i_rx_phy/n126
*84 i_rx_phy/n30
*85 i_rx_phy/U72
*86 i_rx_phy/n34
*87 i_rx_phy/U80
*88 i_rx_phy/U28
*89 i_rx_phy/U25
*90 i_rx_phy/n32
*91 i_rx_phy/U78
*92 i_rx_phy/n10
*93 i_rx_phy/one_cnt_reg\[1\]
*94 i_rx_phy/n37
*95 i_rx_phy/U79
*96 i_rx_phy/one_cnt\[1\]
*97 i_rx_phy/n38
*98 i_rx_phy/n128
*99 i_rx_phy/one_cnt\[0\]
*100 i_rx_phy/one_cnt_reg\[0\]
*101 i_rx_phy/one_cnt\[2\]
*102 i_rx_phy/one_cnt_reg\[2\]
*103 i_rx_phy/n127
*104 i_rx_phy/n33
*105 i_rx_phy/n15
*106 i_rx_phy/sd_nrzi_reg
*107 i_rx_phy/n124
*108 i_rx_phy/bit_cnt_reg\[2\]
*109 i_rx_phy/n9
*110 i_rx_phy/n24
*111 i_rx_phy/n4
*112 i_rx_phy/n27
*113 i_rx_phy/n125
*114 i_rx_phy/n115
*115 i_rx_phy/n75
*116 i_rx_phy/U64
*117 i_rx_phy/n18
*118 i_rx_phy/shift_en_reg
*119 i_rx_phy/n52
*120 i_rx_phy/U71
*121 i_rx_phy/U46
*122 i_rx_phy/n112
*123 i_rx_phy/U57
*124 i_rx_phy/U52
*125 i_rx_phy/U44
*126 i_rx_phy/fs_state_reg\[1\]
*127 i_rx_phy/n49
*128 i_rx_phy/U70
*129 i_rx_phy/U69
*130 i_rx_phy/U51
*131 i_rx_phy/U45
*132 i_rx_phy/U15
*133 i_rx_phy/n54
*134 i_rx_phy/U68
*135 i_rx_phy/n51
*136 i_rx_phy/n35
*137 i_rx_phy/n56
*138 i_rx_phy/U58
*139 i_rx_phy/U55
*140 i_rx_phy/n7
*141 i_rx_phy/U56
*142 i_rx_phy/U16
*143 i_rx_phy/fs_state_reg\[0\]
*144 i_rx_phy/rx_valid_r
*145 i_rx_phy/U67
*146 i_rx_phy/U53
*147 i_rx_phy/rx_valid_r_reg
*148 i_rx_phy/rx_en
*149 i_rx_phy/U59
*150 i_rx_phy/U48
*151 i_rx_phy/rx_en_reg
*152 i_rx_phy/n64
*153 i_rx_phy/U39
*154 i_rx_phy/U38
*155 i_rx_phy/n36
*156 i_rx_phy/U5
*157 i_rx_phy/U86
*158 i_rx_phy/n21
*159 i_rx_phy/U37
*160 i_rx_phy/U4
*161 i_rx_phy/n1
*162 i_rx_phy/U66
*163 i_rx_phy/U63
*164 i_rx_phy/U47
*165 i_rx_phy/fs_ce_r1_reg
*166 i_rx_phy/dpll_state_reg\[0\]
*167 i_rx_phy/n2
*168 i_rx_phy/dpll_state_reg\[1\]
*169 i_rx_phy/n103
*170 i_rx_phy/U65
*171 i_rx_phy/n78
*172 i_rx_phy/byte_err_reg
*173 i_rx_phy/n79
*174 i_rx_phy/sync_err_reg
*175 i_rx_phy/n77
*176 i_rx_phy/N166
*177 i_rx_phy/rx_active_reg
*178 i_rx_phy/n76
*179 i_rx_phy/se0_r_reg
*180 i_rx_phy/N31
*181 i_rx_phy/U40
*182 i_tx_phy/U33
*183 i_tx_phy/U53
*184 i_tx_phy/append_eop_reg
*185 i_tx_phy/U55
*186 i_tx_phy/U38
*187 i_tx_phy/U13
*188 i_tx_phy/tx_ip_reg
*189 i_tx_phy/U59
*190 i_tx_phy/U56
*191 i_tx_phy/U11
*192 U26
*193 U1
*194 i_rx_phy/n73
*195 i_rx_phy/U18
*196 i_rx_phy/n28
*197 i_rx_phy/n68
*198 i_rx_phy/U62
*199 i_rx_phy/U61
*200 i_rx_phy/rxd_s
*201 i_rx_phy/U49
*202 i_rx_phy/U42
*203 i_rx_phy/rxd_s_reg
*204 i_rx_phy/rxd_r_reg
*205 i_rx_phy/rxd_s0
*206 i_rx_phy/rxd_s0_reg
*207 i_rx_phy/rxd_s1_reg
*208 i_rx_phy/rxd_s1
*209 i_rx_phy/n137
*210 i_rx_phy/n48
*211 i_rx_phy/U60
*212 i_rx_phy/n53
*213 i_rx_phy/n113
*214 i_rx_phy/n42
*215 i_rx_phy/U19
*216 i_rx_phy/rxdn_s_reg
*217 i_rx_phy/rxdp_s
*218 i_rx_phy/rxdp_s_reg
*219 i_rx_phy/n39
*220 i_rx_phy/rxdn_s
*221 i_rx_phy/n111
*222 i_rx_phy/U43
*223 i_rx_phy/fs_state_reg\[2\]
*224 i_rx_phy/n71
*225 i_rx_phy/n69
*226 i_rx_phy/U54
*227 i_rx_phy/n67
*228 i_rx_phy/U17
*229 i_rx_phy/n70
*230 i_rx_phy/N87
*231 i_rx_phy/n136
*232 i_rx_phy/n110
*233 i_rx_phy/rx_valid_reg
*234 i_rx_phy/n133
*235 i_rx_phy/n74
*236 i_rx_phy/rxd_r
*237 i_rx_phy/n121
*238 i_rx_phy/n8
*239 i_rx_phy/n132
*240 i_rx_phy/n13
*241 i_rx_phy/n12
*242 i_rx_phy/n131
*243 i_rx_phy/sd_r
*244 i_rx_phy/sd_r_reg
*245 i_rx_phy/n59
*246 i_rx_phy/n114
*247 i_rx_phy/U34
*248 i_rx_phy/sd_nrzi
*249 i_rx_phy/U21
*250 i_rx_phy/n58
*251 i_rx_phy/n134
*252 i_rx_phy/n20
*253 i_rx_phy/n62
*254 i_rx_phy/n135
*255 i_rx_phy/n101
*256 i_rx_phy/se0_s_reg
*257 i_rx_phy/se0_s
*258 i_rx_phy/n100
*259 i_rx_phy/n44
*260 i_rx_phy/n43
*261 i_rx_phy/shift_en
*262 i_rx_phy/U22
*263 i_rx_phy/n130
*264 i_rx_phy/n14
*265 i_rx_phy/n122
*266 i_rx_phy/n17
*267 i_rx_phy/U29
*268 i_rx_phy/n46
*269 i_rx_phy/U3
*270 i_rx_phy/n22
*271 i_rx_phy/U30
*272 i_rx_phy/rx_valid1
*273 i_rx_phy/rx_valid1_reg
*274 i_rx_phy/n16
*275 i_rx_phy/n123
*276 i_rx_phy/n11
*277 i_rx_phy/n6
*278 i_rx_phy/n129
*279 i_rx_phy/n3
*280 i_rx_phy/U7
*281 i_rx_phy/U1
*282 i_rx_phy/U20
*283 i_rx_phy/U12
*284 i_rx_phy/U11
*285 i_rx_phy/U10
*286 i_rx_phy/U9
*287 i_rx_phy/U8
*288 i_rx_phy/hold_reg_reg\[7\]
*289 i_rx_phy/n98
*290 i_rx_phy/hold_reg_reg\[0\]
*291 i_rx_phy/n91
*292 i_rx_phy/hold_reg_reg\[1\]
*293 i_rx_phy/n25
*294 i_rx_phy/n120
*295 i_rx_phy/hold_reg_reg\[6\]
*296 i_rx_phy/n97
*297 i_rx_phy/hold_reg_reg\[5\]
*298 i_rx_phy/n96
*299 i_rx_phy/hold_reg_reg\[4\]
*300 i_rx_phy/n95
*301 i_rx_phy/hold_reg_reg\[3\]
*302 i_rx_phy/n94
*303 i_rx_phy/hold_reg_reg\[2\]
*304 i_rx_phy/n93
*305 i_rx_phy/n92
*306 rst_cnt_reg\[3\]
*307 rst_cnt_reg\[2\]
*308 i_tx_phy/hold_reg_d_reg\[4\]
*309 i_tx_phy/txdn_reg
*310 i_tx_phy/hold_reg_d_reg\[2\]
*311 i_tx_phy/hold_reg_d_reg\[6\]
*312 usb_rst_reg
*313 rst_cnt_reg\[0\]
*314 rst_cnt_reg\[1\]
*315 rst_cnt_reg\[4\]
*316 i_tx_phy/sd_bs_o_reg
*317 i_tx_phy/append_eop_sync1_reg
*318 i_tx_phy/hold_reg_d_reg\[7\]
*319 i_tx_phy/hold_reg_d_reg\[3\]
*320 i_tx_phy/txdp_reg
*321 i_tx_phy/hold_reg_d_reg\[1\]
*322 i_tx_phy/hold_reg_d_reg\[5\]
*323 i_tx_phy/hold_reg_d_reg\[0\]
*324 i_tx_phy/hold_reg_reg\[1\]
*325 i_tx_phy/hold_reg_reg\[2\]
*326 i_tx_phy/hold_reg_reg\[3\]
*327 i_tx_phy/hold_reg_reg\[4\]
*328 i_tx_phy/hold_reg_reg\[5\]
*329 i_tx_phy/hold_reg_reg\[6\]
*330 i_tx_phy/txoe_reg
*331 i_tx_phy/hold_reg_reg\[7\]
*332 i_tx_phy/txoe_r1_reg
*333 i_tx_phy/sd_raw_o_reg
*334 i_tx_phy/data_done_reg
*335 i_tx_phy/sd_nrzi_o_reg
*336 i_tx_phy/txoe_r2_reg
*337 i_tx_phy/hold_reg_reg\[0\]
*338 i_tx_phy/tx_ip_sync_reg
*339 i_tx_phy/state_reg\[1\]
*340 i_tx_phy/state_reg\[2\]
*341 i_tx_phy/state_reg\[0\]
*342 i_tx_phy/sft_done_reg
*343 i_tx_phy/TxReady_o_reg
*344 i_tx_phy/ld_data_reg
*345 i_tx_phy/sft_done_r_reg
*346 i_tx_phy/one_cnt_reg\[1\]
*347 i_tx_phy/bit_cnt_reg\[2\]
*348 i_tx_phy/bit_cnt_reg\[1\]
*349 i_tx_phy/one_cnt_reg\[0\]
*350 i_tx_phy/bit_cnt_reg\[0\]
*351 i_tx_phy/append_eop_sync3_reg
*352 i_tx_phy/append_eop_sync4_reg
*353 i_tx_phy/append_eop_sync2_reg
*354 i_tx_phy/one_cnt_reg\[2\]
*355 i_rx_phy/rxdn_s1_reg
*356 i_rx_phy/rxdp_s1_reg
*357 i_rx_phy/fs_ce_r2_reg
*358 i_rx_phy/rxdn_s_r_reg
*359 i_rx_phy/rxdp_s_r_reg
*360 i_rx_phy/rxdn_s0_reg
*361 i_rx_phy/rxdp_s0_reg
*362 i_rx_phy/fs_ce_r2
*363 i_rx_phy/rxdn_s_r
*364 i_rx_phy/rxdn_s0
*365 U27
*366 U25
*367 i_rx_phy/rxdp_s_r
*368 i_rx_phy/rxdp_s0
*369 U31
*370 i_rx_phy/fs_ce_r1
*371 i_tx_phy/U98
*372 i_tx_phy/n66
*373 i_tx_phy/U28
*374 i_tx_phy/U2
*375 i_tx_phy/n53
*376 i_tx_phy/U103
*377 i_tx_phy/U14
*378 i_tx_phy/n26
*379 i_tx_phy/U102
*380 i_tx_phy/U58
*381 i_tx_phy/U39
*382 i_tx_phy/U9
*383 i_tx_phy/n39
*384 i_tx_phy/U101
*385 i_tx_phy/U100
*386 i_tx_phy/U99
*387 i_tx_phy/U96
*388 i_tx_phy/U21
*389 i_tx_phy/U19
*390 i_tx_phy/n47
*391 i_tx_phy/U88
*392 i_tx_phy/U78
*393 i_tx_phy/sd_raw_o
*394 i_tx_phy/n50
*395 i_tx_phy/U20
*396 i_tx_phy/n17
*397 i_tx_phy/n52
*398 i_tx_phy/n49
*399 i_tx_phy/U27
*400 i_tx_phy/one_cnt\[0\]
*401 i_tx_phy/one_cnt\[1\]
*402 i_tx_phy/n15
*403 i_tx_phy/n48
*404 i_tx_phy/n16
*405 i_tx_phy/n59
*406 i_tx_phy/U37
*407 i_tx_phy/n8
*408 i_tx_phy/U97
*409 i_tx_phy/U47
*410 i_tx_phy/U43
*411 i_tx_phy/U40
*412 i_tx_phy/U36
*413 i_tx_phy/U63
*414 i_tx_phy/U46
*415 i_tx_phy/U48
*416 i_tx_phy/U42
*417 i_tx_phy/n102
*418 i_tx_phy/n27
*419 i_tx_phy/U35
*420 i_tx_phy/U4
*421 i_tx_phy/append_eop_sync3
*422 i_tx_phy/U77
*423 i_tx_phy/U75
*424 i_tx_phy/U62
*425 i_tx_phy/U45
*426 i_tx_phy/U44
*427 i_tx_phy/n109
*428 i_tx_phy/n65
*429 i_tx_phy/append_eop_sync2
*430 i_tx_phy/n92
*431 i_tx_phy/n67
*432 i_tx_phy/U94
*433 i_tx_phy/append_eop
*434 i_tx_phy/n18
*435 i_tx_phy/n60
*436 i_tx_phy/U93
*437 i_tx_phy/tx_ip
*438 i_tx_phy/n19
*439 i_tx_phy/U92
*440 i_tx_phy/n114
*441 i_tx_phy/n14
*442 i_tx_phy/U91
*443 i_tx_phy/sft_done
*444 i_tx_phy/n76
*445 i_tx_phy/U85
*446 i_tx_phy/U60
*447 i_tx_phy/U34
*448 i_tx_phy/n21
*449 i_tx_phy/U64
*450 i_tx_phy/U72
*451 i_tx_phy/U67
*452 i_tx_phy/U73
*453 i_tx_phy/U71
*454 i_tx_phy/U70
*455 i_tx_phy/U69
*456 i_tx_phy/U68
*457 i_tx_phy/U3
*458 i_tx_phy/n82
*459 i_tx_phy/U89
*460 i_tx_phy/data_done
*461 i_tx_phy/U52
*462 i_tx_phy/n25
*463 i_tx_phy/U66
*464 i_tx_phy/U41
*465 i_tx_phy/state\[1\]
*466 i_tx_phy/U51
*467 i_tx_phy/U50
*468 i_tx_phy/one_cnt\[2\]
*469 i_tx_phy/n64
*470 i_tx_phy/U87
*471 i_tx_phy/U17
*472 i_tx_phy/n24
*473 i_tx_phy/n23
*474 i_tx_phy/state\[0\]
*475 i_tx_phy/n45
*476 i_tx_phy/U86
*477 i_tx_phy/U81
*478 i_tx_phy/U80
*479 i_tx_phy/U25
*480 i_tx_phy/bit_cnt\[0\]
*481 i_tx_phy/U83
*482 i_tx_phy/U26
*483 i_tx_phy/n12
*484 i_tx_phy/U84
*485 i_tx_phy/U82
*486 i_tx_phy/U24
*487 i_tx_phy/n5
*488 i_tx_phy/U76
*489 i_tx_phy/bit_cnt\[1\]
*490 i_tx_phy/hold_reg_d\[4\]
*491 i_tx_phy/n81
*492 i_tx_phy/hold_reg_d\[6\]
*493 i_tx_phy/n42
*494 i_tx_phy/U23
*495 i_tx_phy/hold_reg_d\[0\]
*496 i_tx_phy/n80
*497 i_tx_phy/hold_reg_d\[2\]
*498 i_tx_phy/hold_reg_d\[5\]
*499 i_tx_phy/hold_reg_d\[7\]
*500 i_tx_phy/n78
*501 i_tx_phy/U79
*502 i_tx_phy/n13
*503 i_tx_phy/U18
*504 i_tx_phy/hold_reg_d\[1\]
*505 i_tx_phy/hold_reg_d\[3\]
*506 i_tx_phy/n79
*507 i_tx_phy/n77
*508 i_tx_phy/n11
*509 i_tx_phy/bit_cnt\[2\]
*510 i_tx_phy/U22
*511 i_tx_phy/N88
*512 i_tx_phy/n75
*513 i_tx_phy/n72
*514 i_tx_phy/U61
*515 i_tx_phy/n74
*516 i_tx_phy/n56
*517 i_tx_phy/U74
*518 i_tx_phy/U65
*519 i_tx_phy/U16
*520 i_tx_phy/ld_data
*521 i_tx_phy/n54
*522 i_tx_phy/hold_reg\[6\]
*523 i_tx_phy/n94
*524 i_tx_phy/n55
*525 i_tx_phy/hold_reg\[5\]
*526 i_tx_phy/n95
*527 i_tx_phy/hold_reg\[4\]
*528 i_tx_phy/n96
*529 i_tx_phy/hold_reg\[3\]
*530 i_tx_phy/n97
*531 i_tx_phy/hold_reg\[2\]
*532 i_tx_phy/n98
*533 i_tx_phy/hold_reg\[1\]
*534 i_tx_phy/n99
*535 i_tx_phy/hold_reg\[0\]
*536 i_tx_phy/n100
*537 i_tx_phy/n28
*538 i_tx_phy/hold_reg\[7\]
*539 i_tx_phy/n93
*540 i_tx_phy/n20
*541 i_tx_phy/n7
*542 i_tx_phy/U32
*543 i_tx_phy/n73
*544 i_tx_phy/state\[2\]
*545 i_tx_phy/U49
*546 i_tx_phy/n71
*547 i_tx_phy/n70
*548 i_tx_phy/n69
*549 i_tx_phy/U12
*550 i_tx_phy/n37
*551 i_tx_phy/sd_bs_o
*552 i_tx_phy/n36
*553 i_tx_phy/U57
*554 i_tx_phy/U30
*555 i_tx_phy/n38
*556 i_tx_phy/U8
*557 i_tx_phy/txoe_r1
*558 i_tx_phy/tx_ip_sync
*559 i_tx_phy/n58
*560 i_tx_phy/U54
*561 i_tx_phy/n68
*562 i_tx_phy/n57
*563 i_tx_phy/n101
*564 i_tx_phy/n61
*565 i_tx_phy/n63
*566 i_tx_phy/n107
*567 i_tx_phy/n31
*568 i_tx_phy/n62
*569 i_tx_phy/n106
*570 i_tx_phy/n105
*571 i_tx_phy/append_eop_sync1
*572 i_tx_phy/n110
*573 i_tx_phy/n108
*574 i_tx_phy/append_eop_sync4
*575 i_tx_phy/n33
*576 i_tx_phy/sd_nrzi_o
*577 i_tx_phy/U29
*578 i_tx_phy/n32
*579 i_tx_phy/n84
*580 i_tx_phy/n103
*581 i_tx_phy/txoe_r2
*582 i_tx_phy/n112
*583 i_tx_phy/n10
*584 i_tx_phy/n111
*585 i_tx_phy/n104
*586 i_tx_phy/n30
*587 i_tx_phy/n83
*588 i_tx_phy/tx_ready_d
*589 i_tx_phy/N18
*590 i_tx_phy/n34
*591 i_tx_phy/U31
*592 i_tx_phy/n9
*593 i_tx_phy/n35
*594 i_tx_phy/n85
*595 i_tx_phy/n6
*596 i_tx_phy/n90
*597 i_tx_phy/n22
*598 i_tx_phy/U5
*599 i_tx_phy/n88
*600 i_tx_phy/n44
*601 i_tx_phy/n43
*602 i_tx_phy/n89
*603 i_tx_phy/n40
*604 i_tx_phy/n41
*605 i_tx_phy/n87
*606 i_tx_phy/n51
*607 i_tx_phy/n91
*608 i_tx_phy/n86
*609 i_tx_phy/n4
*610 i_tx_phy/n46
*611 i_tx_phy/n2
*612 N11
*613 U34
*614 U19
*615 rst_cnt\[4\]
*616 U32
*617 add_178_S2/carry\[4\]
*618 U30
*619 rst_cnt\[3\]
*620 U20
*621 n7
*622 rst_cnt\[2\]
*623 U29
*624 U21
*625 n17
*626 N10
*627 add_178_S2/carry\[3\]
*628 N9
*629 add_178_S2/carry\[2\]
*630 U28
*631 N8
*632 U22
*633 rst_cnt\[0\]
*634 U23
*635 rst_cnt\[1\]
*636 n18
*637 n4
*638 n5
*639 U18
*640 n6
*641 N7
*642 n12
*643 n16
*644 n11
*645 n10
*646 n9
*647 n8
*648 n1
*649 i_rx_phy/n57

*PORTS
*1 I *L 0.0 *S 0.0 0.0
*2 I *L 0.0 *S 0.0 0.0
*3 I *L 0.0 *S 0.0 0.0
*4 O *L 0.0 *S 0.0 0.0
*5 I *L 0.0 *S 0.0 0.0
*6 I *L 0.0 *S 0.0 0.0
*7 I *L 0.0 *S 0.0 0.0
*8 I *L 0.0 *S 0.0 0.0
*9 I *L 0.0 *S 0.0 0.0
*10 I *L 0.0 *S 0.0 0.0
*11 I *L 0.0 *S 0.0 0.0
*12 O *L 0.0 *S 0.0 0.0
*13 O *L 0.0 *S 0.0 0.0
*14 O *L 0.0 *S 0.0 0.0
*15 O *L 0.0 *S 0.0 0.0
*16 O *L 0.0 *S 0.0 0.0
*17 O *L 0.0 *S 0.0 0.0
*18 O *L 0.0 *S 0.0 0.0
*19 O *L 0.0 *S 0.0 0.0
*20 I *L 0.0 *S 0.0 0.0
*21 I *L 0.0 *S 0.0 0.0
*22 I *L 0.0 *S 0.0 0.0
*23 I *L 0.0 *S 0.0 0.0
*24 I *L 0.0 *S 0.0 0.0
*25 I *L 0.0 *S 0.0 0.0
*26 I *L 0.0 *S 0.0 0.0
*27 O *L 0.0 *S 0.0 0.0
*28 O *L 0.0 *S 0.0 0.0
*29 O *L 0.0 *S 0.0 0.0
*30 O *L 0.0 *S 0.0 0.0
*31 O *L 0.0 *S 0.0 0.0
*32 O *L 0.0 *S 0.0 0.0
*33 O *L 0.0 *S 0.0 0.0
*34 O *L 0.0 *S 0.0 0.0
*35 O *L 0.0 *S 0.0 0.0

*D_NET *36 0.6380433

*CONN
*I *37:A I *L 518.4735 *C 18.816 42.68
*I *38:Y O *L 0.0 *D NAND2X0_RVT *C 20.032 41.008
*I *39:A2 I *L 483.7213 *C 17.904 40.856
*I *40:A4 I *L 499.7889 *C 17.904 42.832
*N *36:5 *C 18.816 42.68
*N *36:6 *C 18.816 41.616
*N *36:7 *C 18.816 41.616
*N *36:8 *C 17.904 40.856
*N *36:9 *C 17.904 42.832
*N *36:10 *C 17.904 41.312
*N *36:11 *C 17.904 41.312
*N *36:12 *C 20.032 41.008
*N *36:13 *C 20.032 41.616
*N *36:14 *C 20.032 41.616
*N *36:15 *C 18.816 41.312

*CAP
1 *37:A 0.0
2 *38:Y 0.0
3 *39:A2 0.0
4 *40:A4 0.0
5 *36:5 0.05184495
6 *36:6 0.05749562
7 *36:7 0.05184495
8 *36:8 0.008412229
9 *36:9 0.04459503
10 *36:10 0.03313347
11 *36:11 0.05300724
12 *36:12 0.02900953
13 *36:13 0.04351823
14 *36:14 0.02900953
15 *36:15 0.04711087
16 *36:12 *54:88 0.02005539
17 *36:9 *54:92 0.00383875
18 *36:11 *54:91 0.05010081
19 *36:8 *54:91 0.04662035
20 *36:9 *277:1578 0.0342232
21 *36:11 *277:1580 0.0342232

*RES
1 *36:5 *37:A 1.0
2 *36:6 *36:7 0.5
3 *36:8 *39:A2 1.0
4 *36:9 *40:A4 1.0
5 *36:10 *36:11 0.5
6 *36:12 *38:Y 1.0
7 *36:13 *36:14 0.5
8 *36:8 *36:11 0.7338625
9 *36:11 *36:9 2.621092
10 *36:7 *36:5 1.813496
11 *36:12 *36:14 1.007161
12 *36:10 *36:15 1.541797
13 *36:15 *36:6 0.4510143
14 *36:6 *36:13 2.078887

*END

*D_NET *41 0.3982947

*CONN
*I *37:Y O *L 0.0 *D INVX0_RVT *C 19.12 42.832
*I *42:A1 I *L 450.5898 *C 21.096 41.16
*N *41:18 *C 19.12 42.832
*N *41:19 *C 19.12 42.832
*N *41:20 *C 21.096 42.832
*N *41:21 *C 21.096 42.832
*N *41:22 *C 21.096 41.16

*CAP
1 *37:Y 0.0
2 *42:A1 0.0
3 *41:18 0.01467649
4 *41:19 0.1005371
5 *41:20 0.08586062
6 *41:21 0.07276328
7 *41:22 0.07276328
8 *41:21 *24:2920 0.02584693
9 *41:22 *24:2920 0.02584693

*RES
1 *41:18 *37:Y 1.0
2 *41:19 *41:18 0.5
3 *41:20 *41:21 0.5
4 *41:22 *42:A1 1.0
5 *41:22 *41:21 2.890335
6 *41:19 *41:20 3.436321

*END

*D_NET *43 5.904521

*CONN
*I *44:A2 I *L 405.9669 *C 27.48 27.48
*I *45:A2 I *L 489.6476 *C 31.432 40.856
*I *46:A I *L 518.4735 *C 25.808 25.96
*I *38:A2 I *L 405.9669 *C 20.336 40.856
*I *47:A2 I *L 471.5846 *C 37.512 36.144
*I *48:A4 I *L 499.7889 *C 36.144 26.112
*I *49:A4 I *L 499.7889 *C 39.054 40.704
*I *50:A4 I *L 499.7889 *C 34.32 29.456
*I *51:A2 I *L 440.145 *C 37.36 22.312
*I *52:A1 I *L 450.5898 *C 28.544 27.784
*I *53:Q O *L 0.0 *D DFFX1_RVT *C 41.768 41.16
*N *43:34 *C 37.512 36.144
*N *43:35 *C 38.272 36.144
*N *43:36 *C 38.272 36.144
*N *43:37 *C 38.272 40.4
*N *43:38 *C 38.272 40.4
*N *43:39 *C 28.544 27.784
*N *43:40 *C 28.544 27.024
*N *43:41 *C 28.544 27.024
*N *43:42 *C 27.48 27.48
*N *43:43 *C 34.32 27.024
*N *43:44 *C 34.32 27.024
*N *43:45 *C 34.32 29.456
*N *43:46 *C 36.144 26.112
*N *43:47 *C 37.512 36.144
*N *43:48 *C 31.432 40.856
*N *43:49 *C 37.512 29.456
*N *43:50 *C 37.512 29.456
*N *43:51 *C 34.472 29.456
*N *43:52 *C 34.472 29.456
*N *43:53 *C 25.808 25.96
*N *43:54 *C 25.808 26.112
*N *43:55 *C 25.808 26.112
*N *43:56 *C 27.48 26.112
*N *43:57 *C 27.48 26.112
*N *43:58 *C 38.88 40.704
*N *43:59 *C 38.88 40.704
*N *43:60 *C 38.88 40.704
*N *43:61 *C 34.32 25.808
*N *43:62 *C 34.32 25.808
*N *43:63 *C 36.144 25.808
*N *43:64 *C 36.144 25.808
*N *43:65 *C 31.432 40.4
*N *43:66 *C 31.432 40.4
*N *43:67 *C 27.48 27.024
*N *43:68 *C 27.48 27.024
*N *43:69 *C 41.768 41.16
*N *43:70 *C 41.768 40.704
*N *43:71 *C 41.768 40.704
*N *43:72 *C 20.336 40.856
*N *43:73 *C 20.336 41.312
*N *43:74 *C 20.336 41.312
*N *43:75 *C 31.432 41.312
*N *43:76 *C 31.432 41.312
*N *43:77 *C 37.36 22.312
*N *43:78 *C 37.36 22.464
*N *43:79 *C 37.36 22.464
*N *43:80 *C 36.144 22.464
*N *43:81 *C 36.144 22.464
*N *43:82 *C 38.88 40.4

*CAP
1 *44:A2 0.0
2 *45:A2 0.0
3 *46:A 0.0
4 *38:A2 0.0
5 *47:A2 0.0
6 *48:A4 0.0
7 *49:A4 0.01116571
8 *50:A4 0.0
9 *51:A2 0.0
10 *52:A1 0.0
11 *53:Q 0.0
12 *43:34 0.03996573
13 *43:35 0.03996573
14 *43:36 0.1690712
15 *43:37 0.300838
16 *43:38 0.1690712
17 *43:39 0.05539371
18 *43:40 0.2983165
19 *43:41 0.05539371
20 *43:42 0.03025533
21 *43:43 0.2502839
22 *43:44 0.1629549
23 *43:45 0.1075058
24 *43:46 0.02168301
25 *43:47 0.1653337
26 *43:48 0.06987563
27 *43:49 0.1300719
28 *43:50 0.1653337
29 *43:51 0.1300719
30 *43:52 0.0003576782
31 *43:53 0.01448904
32 *43:54 0.07513984
33 *43:55 0.01448904
34 *43:56 0.07513984
35 *43:57 0.04270211
36 *43:58 0.1279231
37 *43:59 0.02444785
38 *43:60 0.03561355
39 *43:61 0.08762804
40 *43:62 0.0558067
41 *43:63 0.08762804
42 *43:64 0.1728456
43 *43:65 0.2818221
44 *43:66 0.03493781
45 *43:67 0.04803265
46 *43:68 0.07295744
47 *43:69 0.03124898
48 *43:70 0.113864
49 *43:71 0.03124898
50 *43:72 0.03935051
51 *43:73 0.3660623
52 *43:74 0.03935051
53 *43:75 0.3660623
54 *43:76 0.03493781
55 *43:77 0.0184643
56 *43:78 0.05940222
57 *43:79 0.0184643
58 *43:80 0.05940222
59 *43:81 0.1511626
60 *43:82 0.03307502
61 *43:64 *175:794 0.02063527
62 *43:81 *175:795 0.02063527
63 *43:75 *205:1027 0.05151838
64 *43:75 *205:1034 0.05151838
65 *43:47 *245:1365 0.03100811
66 *43:47 *248:1393 0.2257587
67 *43:50 *248:1393 0.2257587
68 *43:36 *250:1401 0.05440865
69 *43:36 *250:1402 0.05440865
70 *43:75 *625:4528 0.05660656
71 *43:75 *625:4526 0.05660656
72 *43:47 *217:1116 0.01527326
73 *43:47 *217:1114 0.01527326
74 *43:45 *253:1422 0.005061958
75 *43:52 *253:1422 0.03344112

*RES
1 *43:34 *43:47 0.5
2 *43:35 *43:36 0.5
3 *43:37 *43:38 0.5
4 *43:39 *52:A1 1.0
5 *43:40 *43:41 0.5
6 *43:42 *44:A2 1.0
7 *43:43 *43:44 0.5
8 *43:45 *50:A4 1.0
9 *43:46 *48:A4 1.0
10 *43:47 *47:A2 1.0
11 *43:48 *45:A2 1.0
12 *43:49 *43:50 0.5
13 *43:51 *43:52 0.5
14 *43:53 *46:A 1.0
15 *43:54 *43:55 0.5
16 *43:56 *43:57 0.5
17 *43:58 *43:59 0.5
18 *43:59 *43:60 1.0
19 *43:61 *43:62 0.5
20 *43:63 *43:64 0.5
21 *43:65 *43:66 0.5
22 *43:67 *43:68 0.5
23 *43:69 *53:Q 1.0
24 *43:70 *43:71 0.5
25 *43:72 *38:A2 1.0
26 *43:73 *43:74 0.5
27 *43:75 *43:76 0.5
28 *43:77 *51:A2 1.0
29 *43:78 *43:79 0.5
30 *43:80 *43:81 0.5
31 *43:60 *49:A4 0.2079245
32 *43:72 *43:74 0.7293695
33 *43:53 *43:55 0.2068502
34 *43:57 *43:68 1.539422
35 *43:68 *43:42 0.71968
36 *43:41 *43:39 1.266774
37 *43:66 *43:48 0.7338625
38 *43:48 *43:76 0.7338625
39 *43:62 *43:44 2.079793
40 *43:44 *43:45 4.244555
41 *43:45 *43:52 0.1855529
42 *43:81 *43:64 5.874642
43 *43:64 *43:46 0.4696042
44 *43:77 *43:79 0.2068502
45 *43:50 *43:47 11.84528
46 *43:36 *43:38 7.503754
47 *43:71 *43:69 0.7409739
48 *43:73 *43:75 19.71576
49 *43:54 *43:56 2.894746
50 *43:67 *43:40 1.809447
51 *43:40 *43:43 10.21617
52 *43:65 *43:37 12.11588
53 *43:37 *43:82 0.997853
54 *43:61 *43:63 3.165485
55 *43:51 *43:49 5.33375
56 *43:80 *43:78 2.08344
57 *43:34 *43:35 1.27507
58 *43:82 *43:58 0.4510143
59 *43:58 *43:70 5.060425

*END

*D_NET *54 1.078362

*CONN
*I *38:A1 I *L 450.5898 *C 20.184 41.16
*I *39:A1 I *L 526.317 *C 17.752 41.008
*I *55:A3 I *L 480.044 *C 22.616 40.248
*I *56:Y O *L 0.0 *D INVX0_RVT *C 23.528 40.704
*I *40:A3 I *L 480.044 *C 17.752 43.288
*N *54:88 *C 20.184 41.16
*N *54:89 *C 20.184 40.4
*N *54:90 *C 20.184 40.4
*N *54:91 *C 17.752 41.008
*N *54:92 *C 17.752 43.288
*N *54:93 *C 17.752 40.4
*N *54:94 *C 17.752 40.4
*N *54:95 *C 23.528 40.704
*N *54:96 *C 23.528 40.096
*N *54:97 *C 23.528 40.096
*N *54:98 *C 22.616 40.248
*N *54:99 *C 22.616 40.4
*N *54:100 *C 22.616 40.4
*N *54:101 *C 22.768 40.4
*N *54:102 *C 22.768 40.096

*CAP
1 *38:A1 0.0
2 *39:A1 0.0
3 *55:A3 0.0
4 *56:Y 0.0
5 *40:A3 0.0
6 *54:88 0.04556591
7 *54:89 0.1401526
8 *54:90 0.04556591
9 *54:91 0.1133213
10 *54:92 0.1107061
11 *54:93 0.0351483
12 *54:94 0.002615143
13 *54:95 0.03603192
14 *54:96 0.0337697
15 *54:97 0.03603192
16 *54:98 0.0196103
17 *54:99 0.1117399
18 *54:100 0.0196103
19 *54:101 0.02388315
20 *54:102 0.05091728
21 *54:88 *36:12 0.02005539
22 *54:92 *36:9 0.00383875
23 *54:91 *36:11 0.05010081
24 *54:91 *36:8 0.04662035
25 *54:89 *59:117 0.1330771

*RES
1 *54:88 *38:A1 1.0
2 *54:89 *54:90 0.5
3 *54:91 *39:A1 1.0
4 *54:92 *40:A3 1.0
5 *54:93 *54:94 0.5
6 *54:95 *56:Y 1.0
7 *54:96 *54:97 0.5
8 *54:98 *55:A3 1.0
9 *54:99 *54:100 0.5
10 *54:94 *54:91 1.001152
11 *54:91 *54:92 3.976071
12 *54:90 *54:88 1.266774
13 *54:98 *54:100 0.2068502
14 *54:97 *54:95 1.007161
15 *54:93 *54:89 4.247222
16 *54:89 *54:99 4.245109
17 *54:99 *54:101 0.2070218
18 *54:102 *54:101 0.4584127
19 *54:102 *54:96 1.266989

*END

*D_NET *57 0.2162225

*CONN
*I *39:Y O *L 0.0 *D AND2X1_RVT *C 17.144 40.704
*I *58:A3 I *L 480.044 *C 15.928 40.248
*N *57:105 *C 17.144 40.704
*N *57:106 *C 17.144 40.096
*N *57:107 *C 17.144 40.096
*N *57:108 *C 15.928 40.096
*N *57:109 *C 15.928 40.096
*N *57:110 *C 15.928 40.248

*CAP
1 *39:Y 0.0
2 *58:A3 0.0
3 *57:105 0.03700861
4 *57:106 0.05658209
5 *57:107 0.03700861
6 *57:108 0.05658209
7 *57:109 0.01452058
8 *57:110 0.01452058

*RES
1 *57:105 *39:Y 1.0
2 *57:106 *57:107 0.5
3 *57:108 *57:109 0.5
4 *57:110 *58:A3 1.0
5 *57:109 *57:110 0.2068502
6 *57:107 *57:105 1.007161
7 *57:108 *57:106 2.08344

*END

*D_NET *59 3.156143

*CONN
*I *42:A2 I *L 405.9669 *C 20.944 40.856
*I *60:Y O *L 0.0 *D NAND3X0_RVT *C 15.016 41.008
*I *52:A2 I *L 405.9669 *C 28.392 27.48
*I *61:SE I *L 1067.609 *C 32.192 24.744
*N *59:115 *C 28.392 27.48
*N *59:116 *C 20.944 40.856
*N *59:117 *C 20.944 40.704
*N *59:118 *C 20.944 40.704
*N *59:119 *C 15.016 41.008
*N *59:120 *C 15.016 41.008
*N *59:121 *C 32.192 24.744
*N *59:122 *C 32.192 24.896
*N *59:123 *C 32.192 24.896
*N *59:124 *C 28.392 24.896
*N *59:125 *C 28.392 24.896
*N *59:126 *C 28.392 28.24
*N *59:127 *C 28.392 28.24
*N *59:128 *C 27.48 28.24
*N *59:129 *C 27.48 28.24
*N *59:130 *C 27.48 40.704
*N *59:131 *C 27.48 40.704
*N *59:132 *C 20.032 41.008
*N *59:133 *C 20.032 40.704

*CAP
1 *42:A2 0.0
2 *60:Y 0.0
3 *52:A2 0.0
4 *61:SE 0.0
5 *59:115 0.157902
6 *59:116 0.02296974
7 *59:117 0.247608
8 *59:118 0.02296974
9 *59:119 0.02302913
10 *59:120 0.2373739
11 *59:121 0.02205897
12 *59:122 0.1605613
13 *59:123 0.02205897
14 *59:124 0.1605613
15 *59:125 0.1153105
16 *59:126 0.04815787
17 *59:127 0.04259147
18 *59:128 0.04815787
19 *59:129 0.4388517
20 *59:130 0.208864
21 *59:131 0.4388517
22 *59:132 0.2305594
23 *59:133 0.05495856
24 *59:117 *54:89 0.1330771
25 *59:131 *80:243 0.06337384
26 *59:129 *80:241 0.06337384
27 *59:131 *110:438 0.02198906
28 *59:129 *110:437 0.02198906
29 *59:129 *268:1533 0.07447212
30 *59:129 *268:1535 0.07447212

*RES
1 *59:115 *52:A2 1.0
2 *59:116 *42:A2 1.0
3 *59:117 *59:118 0.5
4 *59:119 *60:Y 1.0
5 *59:120 *59:119 0.5
6 *59:121 *61:SE 1.0
7 *59:122 *59:123 0.5
8 *59:124 *59:125 0.5
9 *59:126 *59:127 0.5
10 *59:128 *59:129 0.5
11 *59:130 *59:131 0.5
12 *59:118 *59:116 0.2061925
13 *59:129 *59:131 22.15845
14 *59:125 *59:115 4.518404
15 *59:115 *59:127 1.269887
16 *59:121 *59:123 0.2068502
17 *59:120 *59:132 8.85984
18 *59:133 *59:132 0.4584127
19 *59:133 *59:117 1.53155
20 *59:117 *59:130 11.5731
21 *59:128 *59:126 1.54397
22 *59:124 *59:122 6.6899

*END

*D_NET *62 1.164086

*CONN
*I *42:Y O *L 0.0 *D NAND2X0_RVT *C 21.248 41.008
*I *63:A I *L 518.4735 *C 22.768 42.68
*I *55:A4 I *L 499.7889 *C 22.464 40.704
*I *64:A1 I *L 450.5898 *C 23.069 37.776
*I *65:A1 I *L 481.3457 *C 22.312 37.512
*I *66:A1 I *L 540.7842 *C 24.956 42.68
*N *62:140 *C 21.248 41.008
*N *62:141 *C 21.248 41.008
*N *62:142 *C 22.464 37.816
*N *62:143 *C 22.464 37.816
*N *62:144 *C 22.464 40.704
*N *62:145 *C 22.312 37.512
*N *62:146 *C 24.956 42.68
*N *62:147 *C 24.896 42.528
*N *62:148 *C 24.896 42.528
*N *62:149 *C 22.92 42.528
*N *62:150 *C 22.92 42.528
*N *62:151 *C 22.464 41.008
*N *62:152 *C 22.464 41.008
*N *62:153 *C 22.768 42.68
*N *62:154 *C 22.92 41.008
*N *62:155 *C 22.92 41.008
*N *62:156 *C 22.312 37.36
*N *62:157 *C 22.464 37.36
*N *62:158 *C 22.768 42.528

*CAP
1 *42:Y 0.0
2 *63:A 0.0
3 *55:A4 0.0
4 *64:A1 0.04320009
5 *65:A1 0.0
6 *66:A1 0.01752813
7 *62:140 0.02477655
8 *62:141 0.08667564
9 *62:142 0.159588
10 *62:143 0.04320009
11 *62:144 0.1626428
12 *62:145 0.01270724
13 *62:146 0.04283905
14 *62:147 0.09246209
15 *62:148 0.02531091
16 *62:149 0.09246209
17 *62:150 0.04694674
18 *62:151 0.08795892
19 *62:152 0.01927792
20 *62:153 0.009343005
21 *62:154 0.02605982
22 *62:155 0.03822245
23 *62:156 0.02090065
24 *62:157 0.02441646
25 *62:158 0.01806729
26 *62:155 *77:214 0.06950026

*RES
1 *62:140 *42:Y 1.0
2 *62:141 *62:140 0.5
3 *62:142 *62:143 1.0
4 *62:144 *55:A4 1.0
5 *62:145 *65:A1 1.0
6 *62:146 *66:A1 0.5
7 *62:147 *62:148 0.5
8 *62:149 *62:150 0.5
9 *62:151 *62:152 0.5
10 *62:153 *63:A 1.0
11 *62:154 *62:155 0.5
12 *62:143 *64:A1 1.266
13 *62:156 *62:145 0.2191949
14 *62:156 *62:157 0.1983517
15 *62:157 *62:142 0.7200709
16 *62:142 *62:144 5.059045
17 *62:144 *62:152 0.4696042
18 *62:158 *62:150 0.2067477
19 *62:158 *62:153 0.2067477
20 *62:155 *62:150 2.621091
21 *62:148 *62:146 0.3002679
22 *62:141 *62:151 2.079793
23 *62:151 *62:154 0.7338625
24 *62:149 *62:147 3.436321

*END

*D_NET *67 1.29186

*CONN
*I *63:Y O *L 0.0 *D INVX0_RVT *C 22.616 42.359
*I *68:A2 I *L 442.1154 *C 22.16 39.336
*I *55:A2 I *L 450.7719 *C 22.335 41.16
*I *69:A2 I *L 390.3013 *C 26.568 35.992
*I *70:A1 I *L 526.317 *C 25.96 37.664
*N *67:164 *C 22.16 41.16
*N *67:165 *C 22.16 41.16
*N *67:166 *C 25.96 37.664
*N *67:167 *C 26.568 35.992
*N *67:168 *C 26.568 37.36
*N *67:169 *C 26.568 37.36
*N *67:170 *C 25.96 37.36
*N *67:171 *C 25.96 37.36
*N *67:172 *C 25.96 39.488
*N *67:173 *C 25.96 39.488
*N *67:174 *C 22.16 39.792
*N *67:175 *C 22.16 39.792
*N *67:176 *C 22.16 42.832
*N *67:177 *C 22.16 42.832
*N *67:178 *C 22.16 39.336
*N *67:179 *C 22.16 39.488

*CAP
1 *63:Y 0.01797883
2 *68:A2 0.0
3 *55:A2 0.01613493
4 *69:A2 0.0
5 *70:A1 0.0
6 *67:164 0.1111436
7 *67:165 0.01613493
8 *67:166 0.1101165
9 *67:167 0.02852462
10 *67:168 0.03688321
11 *67:169 0.02852462
12 *67:170 0.03688321
13 *67:171 0.01859369
14 *67:172 0.07118638
15 *67:173 0.09152283
16 *67:174 0.01835896
17 *67:175 0.05843157
18 *67:176 0.0842995
19 *67:177 0.01797883
20 *67:178 0.03158752
21 *67:179 0.08954533
22 *67:172 *71:188 0.04272372
23 *67:172 *71:185 0.05573768
24 *67:179 *71:192 0.05573768
25 *67:172 *77:210 0.03137678
26 *67:179 *77:212 0.03137678
27 *67:164 *78:220 0.04458859
28 *67:175 *78:218 0.04458859
29 *67:169 *80:246 0.05095074
30 *67:167 *80:245 0.05095074

*RES
1 *67:164 *67:165 1.0
2 *67:166 *70:A1 1.0
3 *67:167 *69:A2 1.0
4 *67:168 *67:169 0.5
5 *67:170 *67:171 0.5
6 *67:172 *67:173 0.5
7 *67:174 *67:175 0.5
8 *67:176 *67:177 1.0
9 *67:178 *68:A2 1.0
10 *67:165 *55:A2 0.2227691
11 *67:177 *63:Y 0.6580001
12 *67:178 *67:175 0.7338625
13 *67:175 *67:164 2.34679
14 *67:164 *67:176 2.89194
15 *67:171 *67:166 0.4696042
16 *67:166 *67:173 3.162879
17 *67:167 *67:169 2.353678
18 *67:179 *67:172 6.689243
19 *67:179 *67:174 0.4421949
20 *67:170 *67:168 1.007161

*END

*D_NET *71 1.087229

*CONN
*I *68:A1 I *L 463.7024 *C 22.433 39.184
*I *72:A4 I *L 499.7889 *C 24.288 39.488
*I *73:A1 I *L 450.5898 *C 28.693 35.728
*I *74:QN O *L 0.0 *D DFFX1_RVT *C 25.048 38.88
*N *71:184 *C 24.288 39.488
*N *71:185 *C 24.288 39.184
*N *71:186 *C 24.288 39.184
*N *71:187 *C 25.048 38.88
*N *71:188 *C 25.048 39.184
*N *71:189 *C 25.048 39.184
*N *71:190 *C 22.616 39.184
*N *71:191 *C 22.616 39.184
*N *71:192 *C 22.616 39.184
*N *71:193 *C 27.936 39.184
*N *71:194 *C 27.936 39.184
*N *71:195 *C 27.936 35.688
*N *71:196 *C 27.936 35.688

*CAP
1 *68:A1 0.01053331
2 *72:A4 0.0
3 *73:A1 0.0534252
4 *74:QN 0.0
5 *71:184 0.03041285
6 *71:185 0.05936895
7 *71:186 0.03041285
8 *71:187 0.02496694
9 *71:188 0.0666455
10 *71:189 0.02496694
11 *71:190 0.02082523
12 *71:191 0.01053331
13 *71:192 0.04551315
14 *71:193 0.03196447
15 *71:194 0.1552095
16 *71:195 0.1552095
17 *71:196 0.0534252
18 *71:188 *67:172 0.04272372
19 *71:185 *67:172 0.05573768
20 *71:192 *67:179 0.05573768
21 *71:193 *113:470 0.07980825
22 *71:188 *113:469 0.07980825

*RES
1 *71:184 *72:A4 1.0
2 *71:185 *71:186 0.5
3 *71:187 *74:QN 1.0
4 *71:188 *71:189 0.5
5 *71:190 *71:191 1.0
6 *71:192 *71:190 0.5
7 *71:193 *71:194 0.5
8 *71:195 *71:196 1.0
9 *68:A1 *71:191 0.2186792
10 *71:196 *73:A1 1.57
11 *71:186 *71:184 0.4781764
12 *71:187 *71:189 0.4781763
13 *71:195 *71:194 6.147391
14 *71:192 *71:185 2.89194
15 *71:185 *71:188 1.264006
16 *71:188 *71:193 5.060844

*END

*D_NET *75 0.798289

*CONN